!- Darwin Line endings 

Version,
    9.2;                      !- Version Identifier

SimulationControl,
    Yes,                      !- Do Zone Sizing Calculation
    Yes,                      !- Do System Sizing Calculation
    Yes,                      !- Do Plant Sizing Calculation
    Yes,                      !- Run Simulation for Sizing Periods
    YES;                      !- Run Simulation for Weather File Run Periods

Building,
    High-Rise Apartment,      !- Name
    0,                        !- North Axis
    City,                     !- Terrain
    0.04,                     !- Loads Convergence Tolerance Value
    0.2,                      !- Temperature Convergence Tolerance Value
    FullInteriorAndExterior,    !- Solar Distribution
    25,                       !- Maximum Number of Warmup Days
    6;                        !- Minimum Number of Warmup Days

ShadowCalculation,
    AverageOverDaysInFrequency,    !- Calculation Method
    30,                       !- Calculation Frequency
    15000;                    !- Maximum Figures in Shadow Overlap Calculations

SurfaceConvectionAlgorithm:Inside,
    TARP;                     !- Algorithm

SurfaceConvectionAlgorithm:Outside,
    DOE-2;                    !- Algorithm

HeatBalanceAlgorithm,
    ConductionTransferFunction,    !- Algorithm
    200;                      !- Surface Temperature Upper Limit

Timestep,
    4;                        !- Number of Timesteps per Hour

ConvergenceLimits,
    5,                        !- Minimum System Timestep
    25;                       !- Maximum HVAC Iterations

Site:Location,
    Buffalo.Niagara.Intl.AP_NY_USA WMO=725280,    !- Name
    42.94,                    !- Latitude
    -78.74,                   !- Longitude
    -5,                       !- Time Zone
    215;                      !- Elevation

SizingPeriod:DesignDay,
    Buffalo.Niagara.Intl.AP_NY_USA Ann Htg 99.6% Condns DB,    !- Name
    1,                        !- Month
    21,                       !- Day of Month
    WinterDesignDay,          !- Day Type
    -16.3,                    !- Maximum DryBulb Temperature
    0,                        !- Daily DryBulb Temperature Range
    DefaultMultipliers,       !- DryBulb Temperature Range Modifier Type
    ,                         !- DryBulb Temperature Range Modifier Day Schedule Name
    Wetbulb,                  !- Humidity Condition Type
    -16.3,                    !- Wetbulb or DewPoint at Maximum DryBulb
    ,                         !- Humidity Condition Day Schedule Name
    ,                         !- Humidity Ratio at Maximum DryBulb
    ,                         !- Enthalpy at Maximum DryBulb
    ,                         !- Daily WetBulb Temperature Range
    98769,                    !- Barometric Pressure
    5.1,                      !- Wind Speed
    270,                      !- Wind Direction
    No,                       !- Rain Indicator
    No,                       !- Snow Indicator
    No,                       !- Daylight Saving Time Indicator
    ASHRAEClearSky,           !- Solar Model Indicator
    ,                         !- Beam Solar Day Schedule Name
    ,                         !- Diffuse Solar Day Schedule Name
    ,                         !- ASHRAE Clear Sky Optical Depth for Beam Irradiance taub
    ,                         !- ASHRAE Clear Sky Optical Depth for Diffuse Irradiance taud
    0;                        !- Sky Clearness

SizingPeriod:DesignDay,
    Buffalo.Niagara.Intl.AP_NY_USA Ann Clg .4% Condns DB=>MWB,    !- Name
    7,                        !- Month
    21,                       !- Day of Month
    SummerDesignDay,          !- Day Type
    30.3,                     !- Maximum DryBulb Temperature
    9.3,                      !- Daily DryBulb Temperature Range
    DefaultMultipliers,       !- DryBulb Temperature Range Modifier Type
    ,                         !- DryBulb Temperature Range Modifier Day Schedule Name
    Wetbulb,                  !- Humidity Condition Type
    21.8,                     !- Wetbulb or DewPoint at Maximum DryBulb
    ,                         !- Humidity Condition Day Schedule Name
    ,                         !- Humidity Ratio at Maximum DryBulb
    ,                         !- Enthalpy at Maximum DryBulb
    ,                         !- Daily WetBulb Temperature Range
    98769,                    !- Barometric Pressure
    5.7,                      !- Wind Speed
    240,                      !- Wind Direction
    No,                       !- Rain Indicator
    No,                       !- Snow Indicator
    No,                       !- Daylight Saving Time Indicator
    ASHRAETau,                !- Solar Model Indicator
    ,                         !- Beam Solar Day Schedule Name
    ,                         !- Diffuse Solar Day Schedule Name
    0.462,                    !- ASHRAE Clear Sky Optical Depth for Beam Irradiance taub
    2.001;                    !- ASHRAE Clear Sky Optical Depth for Diffuse Irradiance taud

RunPeriod,
    RUNPERIOD 1,              !- Name
    1,                        !- Begin Month
    1,                        !- Begin Day of Month
    ,                         !- Begin Year
    12,                       !- End Month
    31,                       !- End Day of Month
    ,                         !- End Year
    Sunday,                   !- Day of Week for Start Day
    No,                       !- Use Weather File Holidays and Special Days
    No,                       !- Use Weather File Daylight Saving Period
    No,                       !- Apply Weekend Holiday Rule
    Yes,                      !- Use Weather File Rain Indicators
    Yes,                      !- Use Weather File Snow Indicators
    ;                         !- Treat Weather as Actual

RunPeriodControl:SpecialDays,
    New Years Day,            !- Name
    January 1,                !- Start Date
    1,                        !- Duration
    Holiday;                  !- Special Day Type

RunPeriodControl:SpecialDays,
    Veterans Day,             !- Name
    November 11,              !- Start Date
    1,                        !- Duration
    Holiday;                  !- Special Day Type

RunPeriodControl:SpecialDays,
    Christmas,                !- Name
    December 25,              !- Start Date
    1,                        !- Duration
    Holiday;                  !- Special Day Type

RunPeriodControl:SpecialDays,
    Independence Day,         !- Name
    July 4,                   !- Start Date
    1,                        !- Duration
    Holiday;                  !- Special Day Type

RunPeriodControl:SpecialDays,
    MLK Day,                  !- Name
    3rd Monday in January,    !- Start Date
    1,                        !- Duration
    Holiday;                  !- Special Day Type

RunPeriodControl:SpecialDays,
    Presidents Day,           !- Name
    3rd Monday in February,    !- Start Date
    1,                        !- Duration
    Holiday;                  !- Special Day Type

RunPeriodControl:SpecialDays,
    Memorial Day,             !- Name
    Last Monday in May,       !- Start Date
    1,                        !- Duration
    Holiday;                  !- Special Day Type

RunPeriodControl:SpecialDays,
    Labor Day,                !- Name
    1st Monday in September,    !- Start Date
    1,                        !- Duration
    Holiday;                  !- Special Day Type

RunPeriodControl:SpecialDays,
    Columbus Day,             !- Name
    2nd Monday in October,    !- Start Date
    1,                        !- Duration
    Holiday;                  !- Special Day Type

RunPeriodControl:SpecialDays,
    Thanksgiving,             !- Name
    4th Thursday in November,    !- Start Date
    1,                        !- Duration
    Holiday;                  !- Special Day Type

RunPeriodControl:DaylightSavingTime,
    2nd Sunday in March,      !- Start Date
    1st Sunday in November;    !- End Date

Site:GroundTemperature:BuildingSurface,
    20.27,                    !- January Ground Temperature
    20.17,                    !- February Ground Temperature
    20.19,                    !- March Ground Temperature
    20.27,                    !- April Ground Temperature
    20.38,                    !- May Ground Temperature
    22.64,                    !- June Ground Temperature
    23.1,                     !- July Ground Temperature
    23.22,                    !- August Ground Temperature
    23.23,                    !- September Ground Temperature
    21,                       !- October Ground Temperature
    20.62,                    !- November Ground Temperature
    20.42;                    !- December Ground Temperature

Site:WaterMainsTemperature,
    CORRELATION,              !- Calculation Method
    ,                         !- Temperature Schedule Name
    8.966666667,              !- Annual Average Outdoor Air Temperature
    26.2;                     !- Maximum Difference In Monthly Average Outdoor Air Temperatures

ScheduleTypeLimits,
    On/Off,                   !- Name
    0,                        !- Lower Limit Value
    1,                        !- Upper Limit Value
    Discrete;                 !- Numeric Type

ScheduleTypeLimits,
    Fraction,                 !- Name
    0,                        !- Lower Limit Value
    1,                        !- Upper Limit Value
    Continuous;               !- Numeric Type

ScheduleTypeLimits,
    Temperature,              !- Name
    -100,                     !- Lower Limit Value
    100,                      !- Upper Limit Value
    Continuous;               !- Numeric Type

ScheduleTypeLimits,
    Any Number;               !- Name

ScheduleTypeLimits,
    Control Type,             !- Name
    0,                        !- Lower Limit Value
    4,                        !- Upper Limit Value
    Discrete;                 !- Numeric Type

ScheduleTypeLimits,
    COMPACT HVAC Any Number;    !- Name

Schedule:Compact,
    OCC_APT_SCH,              !- Name
    Fraction,                 !- Schedule Type Limits Name
    Through: 12/31,           !- Field 1
    For: AllDays,             !- Field 2
    Until: 7:00,              !- Field 3
    1.0,                      !- Field 4
    Until: 8:00,              !- Field 5
    0.85,                     !- Field 6
    Until: 9:00,              !- Field 7
    0.39,                     !- Field 8
    Until: 16:00,             !- Field 9
    0.25,                     !- Field 10
    Until: 17:00,             !- Field 11
    0.3,                      !- Field 12
    Until: 18:00,             !- Field 13
    0.52,                     !- Field 14
    Until: 21:00,             !- Field 15
    0.87,                     !- Field 16
    Until: 24:00,             !- Field 17
    1.0;                      !- Field 18

Schedule:Compact,
    OCC_OFF_SCH,              !- Name
    Fraction,                 !- Schedule Type Limits Name
    Through: 12/31,           !- Field 1
    For: Weekdays,            !- Field 2
    Until: 8:00,              !- Field 3
    0.0,                      !- Field 4
    Until: 12:00,             !- Field 5
    1.0,                      !- Field 6
    Until: 13:00,             !- Field 7
    0.5,                      !- Field 8
    Until: 17:00,             !- Field 9
    1.0,                      !- Field 10
    Until: 24:00,             !- Field 11
    0.0,                      !- Field 12
    For AllOtherDays,         !- Field 13
    Until: 24:00,             !- Field 14
    0.0;                      !- Field 15

Schedule:Compact,
    LTG_APT_SCH,              !- Name
    Fraction,                 !- Schedule Type Limits Name
    Through: 12/31,           !- Field 1
    For: AllDays,             !- Field 2
    Until: 4:00,              !- Field 3
    0.011316031,              !- Field 4
    Until: 5:00,              !- Field 5
    0.033948092,              !- Field 6
    Until: 6:00,              !- Field 7
    0.0735542,                !- Field 8
    Until: 7:00,              !- Field 9
    0.079212215,              !- Field 10
    Until: 8:00,              !- Field 11
    0.0735542,                !- Field 12
    Until: 9:00,              !- Field 13
    0.033948092,              !- Field 14
    Until: 15:00,             !- Field 15
    0.022632061,              !- Field 16
    Until: 16:00,             !- Field 17
    0.039606108,              !- Field 18
    Until: 17:00,             !- Field 19
    0.079212215,              !- Field 20
    Until: 18:00,             !- Field 21
    0.113160307,              !- Field 22
    Until: 19:00,             !- Field 23
    0.152766415,              !- Field 24
    Until: 21:00,             !- Field 25
    0.181056492,              !- Field 26
    Until: 22:00,             !- Field 27
    0.124476338,              !- Field 28
    Until: 23:00,             !- Field 29
    0.067896184,              !- Field 30
    Until: 24:00,             !- Field 31
    0.028290077;              !- Field 32

Schedule:Compact,
    LTG_COR_SCH,              !- Name
    Fraction,                 !- Schedule Type Limits Name
    Through: 12/31,           !- Field 1
    For: AllDays,             !- Field 2
    Until: 24:00,             !- Field 3
    0.576875;                 !- Field 4

Schedule:Compact,
    LTG_OFF_SCH,              !- Name
    Fraction,                 !- Schedule Type Limits Name
    Through: 12/31,           !- Field 1
    For: SummerDesignDay,     !- Field 2
    Until: 24:00,             !- Field 3
    1,                        !- Field 4
    For: WinterDesignDay,     !- Field 5
    Until: 24:00,             !- Field 6
    0,                        !- Field 7
    For: Weekdays,            !- Field 8
    Until: 8:00,              !- Field 9
    0.18,                     !- Field 10
    Until: 12:00,             !- Field 11
    0.76932,                  !- Field 12
    Until: 13:00,             !- Field 13
    0.68384,                  !- Field 14
    Until: 17:00,             !- Field 15
    0.76932,                  !- Field 16
    Until: 24:00,             !- Field 17
    0.18,                     !- Field 18
    For: AllOtherDays,        !- Field 19
    Until: 24:00,             !- Field 20
    0.18;                     !- Field 21

Schedule:Compact,
    EQP_APT_SCH,              !- Name
    Fraction,                 !- Schedule Type Limits Name
    Through: 12/31,           !- Field 1
    For: AllDays,             !- Field 2
    Until: 1:00,              !- Field 3
    0.45,                     !- Field 4
    Until: 2:00,              !- Field 5
    0.41,                     !- Field 6
    Until: 3:00,              !- Field 7
    0.39,                     !- Field 8
    Until: 5:00,              !- Field 9
    0.38,                     !- Field 10
    Until: 6:00,              !- Field 11
    0.43,                     !- Field 12
    Until: 7:00,              !- Field 13
    0.54,                     !- Field 14
    Until: 8:00,              !- Field 15
    0.65,                     !- Field 16
    Until: 9:00,              !- Field 17
    0.66,                     !- Field 18
    Until: 10:00,             !- Field 19
    0.67,                     !- Field 20
    Until: 11:00,             !- Field 21
    0.69,                     !- Field 22
    Until: 12:00,             !- Field 23
    0.70,                     !- Field 24
    Until: 13:00,             !- Field 25
    0.69,                     !- Field 26
    Until: 14:00,             !- Field 27
    0.66,                     !- Field 28
    Until: 15:00,             !- Field 29
    0.65,                     !- Field 30
    Until: 16:00,             !- Field 31
    0.68,                     !- Field 32
    Until: 17:00,             !- Field 33
    0.80,                     !- Field 34
    Until: 19:00,             !- Field 35
    1.0,                      !- Field 36
    Until: 20:00,             !- Field 37
    0.93,                     !- Field 38
    Until: 21:00,             !- Field 39
    0.89,                     !- Field 40
    Until: 22:00,             !- Field 41
    0.85,                     !- Field 42
    Until: 23:00,             !- Field 43
    0.71,                     !- Field 44
    Until: 24:00,             !- Field 45
    0.58;                     !- Field 46

Schedule:Compact,
    EQP_OFF_SCH,              !- Name
    Fraction,                 !- Schedule Type Limits Name
    Through: 12/31,           !- Field 1
    For: Weekdays,            !- Field 2
    Until: 7:00,              !- Field 3
    0.218625,                 !- Field 4
    Until: 8:00,              !- Field 5
    0.33125,                  !- Field 6
    Until: 12:00,             !- Field 7
    0.92575,                  !- Field 8
    Until: 13:00,             !- Field 9
    0.870205,                 !- Field 10
    Until: 17:00,             !- Field 11
    0.92575,                  !- Field 12
    Until: 18:00,             !- Field 13
    0.33125,                  !- Field 14
    Until: 24:00,             !- Field 15
    0.218625,                 !- Field 16
    For AllOtherDays,         !- Field 17
    Until: 24:00,             !- Field 18
    0.218625;                 !- Field 19

Schedule:Compact,
    INF_APT_SCH,              !- Name
    Fraction,                 !- Schedule Type Limits Name
    Through: 12/31,           !- Field 1
    For: AllDays,             !- Field 2
    Until: 24:00,             !- Field 3
    1.0;                      !- Field 4

Schedule:Compact,
    INF_OFF_SCH,              !- Name
    Fraction,                 !- Schedule Type Limits Name
    Through: 12/31,           !- Field 1
    For: AllDays,             !- Field 2
    Until: 24:00,             !- Field 3
    1.0;                      !- Field 4

Schedule:Compact,
    INF_COR_SCH,              !- Name
    Fraction,                 !- Schedule Type Limits Name
    Through: 12/31,           !- Field 1
    For: AllDays,             !- Field 2
    Until: 24:00,             !- Field 3
    1.0;                      !- Field 4

Schedule:Compact,
    INFIL_Door_Opening_SCH,    !- Name
    fraction,                 !- Schedule Type Limits Name
    Through: 12/31,           !- Field 1
    For: AllDays,             !- Field 2
    Until: 06:00,             !- Field 3
    0.0,                      !- Field 4
    Until: 07:00,             !- Field 5
    0.131,                    !- Field 6
    Until: 08:00,             !- Field 7
    1.0,                      !- Field 8
    Until: 17:00,             !- Field 9
    0.131,                    !- Field 10
    Until: 18:00,             !- Field 11
    1.0,                      !- Field 12
    Until: 22:00,             !- Field 13
    0.131,                    !- Field 14
    Until: 24:00,             !- Field 15
    0.0;                      !- Field 16

Schedule:Compact,
    HTGSETP_APT_SCH,          !- Name
    Temperature,              !- Schedule Type Limits Name
    THROUGH: 12/31,           !- Field 1
    FOR:AllDays,              !- Field 2
    UNTIL: 24:00,             !- Field 3
    21.7;                     !- Field 4

Schedule:Compact,
    CLGSETP_APT_SCH,          !- Name
    Temperature,              !- Schedule Type Limits Name
    THROUGH: 12/31,           !- Field 1
    FOR:AllDays,              !- Field 2
    UNTIL: 24:00,             !- Field 3
    24.4;                     !- Field 4

Schedule:Compact,
    HTGSETP_DESIGN_OFF_SCH,    !- Name
    Temperature,              !- Schedule Type Limits Name
    THROUGH: 12/31,           !- Field 1
    FOR:AllDays,              !- Field 2
    UNTIL: 24:00,             !- Field 3
    21.1;                     !- Field 4

Schedule:Compact,
    CLGSETP_DESIGN_OFF_SCH,    !- Name
    Temperature,              !- Schedule Type Limits Name
    THROUGH: 12/31,           !- Field 1
    FOR:AllDays,              !- Field 2
    UNTIL: 24:00,             !- Field 3
    23.9;                     !- Field 4

Schedule:Compact,
    HTGSETP_OFF_SCH_No_Optimum,    !- Name
    Temperature,              !- Schedule Type Limits Name
    THROUGH: 12/31,           !- Field 1
    FOR: WinterDesignDay SummerDesignDay,    !- Field 2
    UNTIL: 7:00,              !- Field 3
    15.6,                     !- Field 4
    UNTIL: 8:00,              !- Field 5
    18.3,                     !- Field 6
    UNTIL:17:00,              !- Field 7
    21.1,                     !- Field 8
    UNTIL: 18:00,             !- Field 9
    18.3,                     !- Field 10
    UNTIL: 24:00,             !- Field 11
    15.6,                     !- Field 12
    FOR:Weekdays,             !- Field 13
    UNTIL: 7:00,              !- Field 14
    15.6,                     !- Field 15
    UNTIL: 8:00,              !- Field 16
    21.1,                     !- Field 17
    UNTIL:17:00,              !- Field 18
    21.1,                     !- Field 19
    UNTIL: 18:00,             !- Field 20
    18.3,                     !- Field 21
    UNTIL: 24:00,             !- Field 22
    15.6,                     !- Field 23
    FOR: AllOtherDays,        !- Field 24
    UNTIL: 24:00,             !- Field 25
    15.6;                     !- Field 26

Schedule:Compact,
    HTGSETP_OFF_SCH_Yes_Optimum,    !- Name
    Temperature,              !- Schedule Type Limits Name
    THROUGH: 12/31,           !- Field 1
    FOR: WinterDesignDay SummerDesignDay,    !- Field 2
    UNTIL: 7:00,              !- Field 3
    15.6,                     !- Field 4
    UNTIL: 8:00,              !- Field 5
    18.3,                     !- Field 6
    UNTIL: 17:00,             !- Field 7
    21.1,                     !- Field 8
    UNTIL: 18:00,             !- Field 9
    18.3,                     !- Field 10
    UNTIL: 24:00,             !- Field 11
    15.6,                     !- Field 12
    FOR:Weekdays,             !- Field 13
    UNTIL: 7:00,              !- Field 14
    15.6,                     !- Field 15
    UNTIL: 8:00,              !- Field 16
    17.8,                     !- Field 17
    UNTIL: 9:00,              !- Field 18
    20.0,                     !- Field 19
    UNTIL: 17:00,             !- Field 20
    21.1,                     !- Field 21
    UNTIL: 18:00,             !- Field 22
    18.3,                     !- Field 23
    UNTIL: 24:00,             !- Field 24
    15.6,                     !- Field 25
    FOR: AllOtherDays,        !- Field 26
    UNTIL: 24:00,             !- Field 27
    15.6;                     !- Field 28

Schedule:Compact,
    HTGSETP_OFF_SCH_Yes_Optimum_Original,    !- Name
    Temperature,              !- Schedule Type Limits Name
    THROUGH: 12/31,           !- Field 1
    FOR: WinterDesignDay SummerDesignDay,    !- Field 2
    UNTIL: 7:00,              !- Field 3
    15.6,                     !- Field 4
    UNTIL: 8:00,              !- Field 5
    18.3,                     !- Field 6
    UNTIL: 17:00,             !- Field 7
    21.1,                     !- Field 8
    UNTIL: 18:00,             !- Field 9
    18.3,                     !- Field 10
    UNTIL: 24:00,             !- Field 11
    15.6,                     !- Field 12
    FOR:Weekdays,             !- Field 13
    UNTIL: 7:00,              !- Field 14
    15.6,                     !- Field 15
    UNTIL: 8:00,              !- Field 16
    17.8,                     !- Field 17
    UNTIL: 9:00,              !- Field 18
    20.0,                     !- Field 19
    UNTIL: 17:00,             !- Field 20
    21.1,                     !- Field 21
    UNTIL: 18:00,             !- Field 22
    18.3,                     !- Field 23
    UNTIL: 24:00,             !- Field 24
    15.6,                     !- Field 25
    FOR: AllOtherDays,        !- Field 26
    UNTIL: 24:00,             !- Field 27
    15.6;                     !- Field 28

Schedule:Compact,
    CLGSETP_OFF_SCH_No_Optimum,    !- Name
    Temperature,              !- Schedule Type Limits Name
    THROUGH: 12/31,           !- Field 1
    FOR: WinterDesignDay SummerDesignDay,    !- Field 2
    UNTIL: 7:00,              !- Field 3
    29.4,                     !- Field 4
    UNTIL: 8:00,              !- Field 5
    26.7,                     !- Field 6
    UNTIL:17:00,              !- Field 7
    23.9,                     !- Field 8
    UNTIL: 18:00,             !- Field 9
    26.7,                     !- Field 10
    UNTIL: 24:00,             !- Field 11
    29.4,                     !- Field 12
    FOR:Weekdays,             !- Field 13
    UNTIL: 7:00,              !- Field 14
    29.4,                     !- Field 15
    UNTIL: 8:00,              !- Field 16
    23.9,                     !- Field 17
    UNTIL:17:00,              !- Field 18
    23.9,                     !- Field 19
    UNTIL: 18:00,             !- Field 20
    26.7,                     !- Field 21
    UNTIL: 24:00,             !- Field 22
    29.4,                     !- Field 23
    FOR: AllOtherDays,        !- Field 24
    UNTIL: 24:00,             !- Field 25
    29.4;                     !- Field 26

Schedule:Compact,
    CLGSETP_OFF_SCH_Yes_Optimum,    !- Name
    Temperature,              !- Schedule Type Limits Name
    THROUGH: 12/31,           !- Field 1
    FOR: WinterDesignDay SummerDesignDay,    !- Field 2
    UNTIL: 7:00,              !- Field 3
    29.4,                     !- Field 4
    UNTIL: 8:00,              !- Field 5
    26.7,                     !- Field 6
    UNTIL:17:00,              !- Field 7
    23.9,                     !- Field 8
    UNTIL: 18:00,             !- Field 9
    26.7,                     !- Field 10
    UNTIL: 24:00,             !- Field 11
    29.4,                     !- Field 12
    FOR:Weekdays,             !- Field 13
    UNTIL: 7:00,              !- Field 14
    29.4,                     !- Field 15
    UNTIL: 8:00,              !- Field 16
    27.8,                     !- Field 17
    UNTIL: 9:00,              !- Field 18
    25.6,                     !- Field 19
    UNTIL: 17:00,             !- Field 20
    23.9,                     !- Field 21
    UNTIL: 18:00,             !- Field 22
    26.7,                     !- Field 23
    UNTIL: 24:00,             !- Field 24
    29.4,                     !- Field 25
    FOR: AllOtherDays,        !- Field 26
    UNTIL: 24:00,             !- Field 27
    29.4;                     !- Field 28

Schedule:Compact,
    CLGSETP_OFF_SCH_Yes_Optimum_Original,    !- Name
    Temperature,              !- Schedule Type Limits Name
    THROUGH: 12/31,           !- Field 1
    FOR: WinterDesignDay SummerDesignDay,    !- Field 2
    UNTIL: 7:00,              !- Field 3
    29.4,                     !- Field 4
    UNTIL: 8:00,              !- Field 5
    26.7,                     !- Field 6
    UNTIL:17:00,              !- Field 7
    23.9,                     !- Field 8
    UNTIL: 18:00,             !- Field 9
    26.7,                     !- Field 10
    UNTIL: 24:00,             !- Field 11
    29.4,                     !- Field 12
    FOR:Weekdays,             !- Field 13
    UNTIL: 7:00,              !- Field 14
    29.4,                     !- Field 15
    UNTIL: 8:00,              !- Field 16
    27.8,                     !- Field 17
    UNTIL: 9:00,              !- Field 18
    25.6,                     !- Field 19
    UNTIL: 17:00,             !- Field 20
    23.9,                     !- Field 21
    UNTIL: 18:00,             !- Field 22
    26.7,                     !- Field 23
    UNTIL: 24:00,             !- Field 24
    29.4,                     !- Field 25
    FOR: AllOtherDays,        !- Field 26
    UNTIL: 24:00,             !- Field 27
    29.4;                     !- Field 28

Schedule:Compact,
    CLGSETP_OFF_SCH_No_Setback,    !- Name
    Temperature,              !- Schedule Type Limits Name
    THROUGH: 12/31,           !- Field 1
    FOR: WinterDesignDay SummerDesignDay,    !- Field 2
    UNTIL: 7:00,              !- Field 3
    29.4,                     !- Field 4
    UNTIL: 8:00,              !- Field 5
    26.7,                     !- Field 6
    UNTIL:17:00,              !- Field 7
    23.9,                     !- Field 8
    UNTIL: 18:00,             !- Field 9
    26.7,                     !- Field 10
    UNTIL: 24:00,             !- Field 11
    29.4,                     !- Field 12
    FOR:Weekdays,             !- Field 13
    UNTIL: 7:00,              !- Field 14
    23.9,                     !- Field 15
    UNTIL: 8:00,              !- Field 16
    23.9,                     !- Field 17
    UNTIL:17:00,              !- Field 18
    23.9,                     !- Field 19
    UNTIL: 18:00,             !- Field 20
    23.9,                     !- Field 21
    UNTIL: 24:00,             !- Field 22
    23.9,                     !- Field 23
    FOR: AllOtherDays,        !- Field 24
    UNTIL: 24:00,             !- Field 25
    23.9;                     !- Field 26

Schedule:Compact,
    Activity Schedule,        !- Name
    Any Number,               !- Schedule Type Limits Name
    Through: 12/31,           !- Field 1
    For: AllDays,             !- Field 2
    Until: 24:00,             !- Field 3
    95;                       !- Field 4

Schedule:Compact,
    All Off,                  !- Name
    Fraction,                 !- Schedule Type Limits Name
    Through: 12/31,           !- Field 1
    For: AllDays,             !- Field 2
    Until: 24:00,             !- Field 3
    0.0;                      !- Field 4

Schedule:Compact,
    All On,                   !- Name
    Fraction,                 !- Schedule Type Limits Name
    Through: 12/31,           !- Field 1
    For: AllDays,             !- Field 2
    Until: 24:00,             !- Field 3
    1;                        !- Field 4

Schedule:Compact,
    Exterior_Lgt_ALWAYS_ON,    !- Name
    Fraction,                 !- Schedule Type Limits Name
    Through: 12/31,           !- Field 1
    For: AllDays,             !- Field 2
    Until: 24:00,             !- Field 3