!- Darwin Line endings 

Version,
    9.2;                      !- Version Identifier

SimulationControl,
    Yes,                      !- Do Zone Sizing Calculation
    Yes,                      !- Do System Sizing Calculation
    No,                       !- Do Plant Sizing Calculation
    Yes,                      !- Run Simulation for Sizing Periods
    Yes;                      !- Run Simulation for Weather File Run Periods

Building,
    SF+CZ5AWH+USA_IL_Chicago-OHare.Intl.AP.725300+oilfurnace+slab+IECC_2012,    !- Name
    0,                        !- North Axis
    Suburbs,                  !- Terrain
    0.04,                     !- Loads Convergence Tolerance Value
    0.4,                      !- Temperature Convergence Tolerance Value
    FullExterior,             !- Solar Distribution
    25,                       !- Maximum Number of Warmup Days
    6;                        !- Minimum Number of Warmup Days

SurfaceConvectionAlgorithm:Inside,
    TARP;                     !- Algorithm

Timestep,
    4;                        !- Number of Timesteps per Hour

Site:Location,
    Chicago Ohare Intl Ap_IL_USA Design_Conditions,    !- Name
    41.98,                    !- Latitude
    -87.92,                   !- Longitude
    -6,                       !- Time Zone
    201;                      !- Elevation

SizingPeriod:DesignDay,
    Chicago Ohare Intl Ap Ann Htg 99.6% Condns DB,    !- Name
    1,                        !- Month
    21,                       !- Day of Month
    WinterDesignDay,          !- Day Type
    -20,                      !- Maximum DryBulb Temperature
    0,                        !- Daily DryBulb Temperature Range
    DefaultMultipliers,       !- DryBulb Temperature Range Modifier Type
    ,                         !- DryBulb Temperature Range Modifier Day Schedule Name
    Wetbulb,                  !- Humidity Condition Type
    -20,                      !- Wetbulb or DewPoint at Maximum DryBulb
    ,                         !- Humidity Condition Day Schedule Name
    ,                         !- Humidity Ratio at Maximum DryBulb
    ,                         !- Enthalpy at Maximum DryBulb
    ,                         !- Daily WetBulb Temperature Range
    98934,                    !- Barometric Pressure
    4.9,                      !- Wind Speed
    270,                      !- Wind Direction
    No,                       !- Rain Indicator
    No,                       !- Snow Indicator
    No,                       !- Daylight Saving Time Indicator
    ASHRAEClearSky,           !- Solar Model Indicator
    ,                         !- Beam Solar Day Schedule Name
    ,                         !- Diffuse Solar Day Schedule Name
    ,                         !- ASHRAE Clear Sky Optical Depth for Beam Irradiance taub
    ,                         !- ASHRAE Clear Sky Optical Depth for Diffuse Irradiance taud
    0;                        !- Sky Clearness

SizingPeriod:DesignDay,
    Chicago Ohare Intl Ap Ann Clg .4% Condns DB=>MWB,    !- Name
    7,                        !- Month
    21,                       !- Day of Month
    SummerDesignDay,          !- Day Type
    33.3,                     !- Maximum DryBulb Temperature
    10.5,                     !- Daily DryBulb Temperature Range
    DefaultMultipliers,       !- DryBulb Temperature Range Modifier Type
    ,                         !- DryBulb Temperature Range Modifier Day Schedule Name
    Wetbulb,                  !- Humidity Condition Type
    23.7,                     !- Wetbulb or DewPoint at Maximum DryBulb
    ,                         !- Humidity Condition Day Schedule Name
    ,                         !- Humidity Ratio at Maximum DryBulb
    ,                         !- Enthalpy at Maximum DryBulb
    ,                         !- Daily WetBulb Temperature Range
    98934,                    !- Barometric Pressure
    5.2,                      !- Wind Speed
    230,                      !- Wind Direction
    No,                       !- Rain Indicator
    No,                       !- Snow Indicator
    No,                       !- Daylight Saving Time Indicator
    ASHRAETau,                !- Solar Model Indicator
    ,                         !- Beam Solar Day Schedule Name
    ,                         !- Diffuse Solar Day Schedule Name
    0.455,                    !- ASHRAE Clear Sky Optical Depth for Beam Irradiance taub
    2.050;                    !- ASHRAE Clear Sky Optical Depth for Diffuse Irradiance taud

RunPeriod,
    annual,                   !- Name
    1,                        !- Begin Month
    1,                        !- Begin Day of Month
    12,                       !- Begin Year
    31,                       !- End Month
    UseWeatherFile,           !- End Day of Month
    Yes,                      !- End Year
    Yes,                      !- Day of Week for Start Day
    No,                       !- Use Weather File Holidays and Special Days
    Yes,                      !- Use Weather File Daylight Saving Period
    Yes,                      !- Apply Weekend Holiday Rule
    1;                        !- Use Weather File Rain Indicators

Site:WaterMainsTemperature,
    Correlation,              !- Calculation Method
    ,                         !- Temperature Schedule Name
    9.925,                    !- Annual Average Outdoor Air Temperature
    28.7;                     !- Maximum Difference In Monthly Average Outdoor Air Temperatures

ScheduleTypeLimits,
    any number;               !- Name

ScheduleTypeLimits,
    On/Off,                   !- Name
    0,                        !- Lower Limit Value
    1,                        !- Upper Limit Value
    Discrete;                 !- Numeric Type

ScheduleTypeLimits,
    control_type,             !- Name
    0,                        !- Lower Limit Value
    4,                        !- Upper Limit Value
    Discrete;                 !- Numeric Type

ScheduleTypeLimits,
    fraction,                 !- Name
    0,                        !- Lower Limit Value
    1,                        !- Upper Limit Value
    Continuous;               !- Numeric Type

ScheduleTypeLimits,
    Temperature,              !- Name
    -60,                      !- Lower Limit Value
    200,                      !- Upper Limit Value
    Continuous;               !- Numeric Type

Schedule:Day:Hourly,
    OccupancyDay,             !- Name
    Fraction,                 !- Schedule Type Limits Name
    1,                        !- Hour 1
    1,                        !- Hour 2
    1,                        !- Hour 3
    1,                        !- Hour 4
    1,                        !- Hour 5
    1,                        !- Hour 6
    1,                        !- Hour 7
    0.8831,                   !- Hour 8
    0.40861,                  !- Hour 9
    0.24189,                  !- Hour 10
    0.24189,                  !- Hour 11
    0.24189,                  !- Hour 12
    0.24189,                  !- Hour 13
    0.24189,                  !- Hour 14
    0.24189,                  !- Hour 15
    0.24189,                  !- Hour 16
    0.29498,                  !- Hour 17
    0.5531,                   !- Hour 18
    0.89693,                  !- Hour 19
    0.89693,                  !- Hour 20
    0.89693,                  !- Hour 21
    1,                        !- Hour 22
    1,                        !- Hour 23
    1;                        !- Hour 24

Schedule:Day:Hourly,
    LightingDay,              !- Name
    Fraction,                 !- Schedule Type Limits Name
    0.0625,                   !- Hour 1
    0.0625,                   !- Hour 2
    0.0625,                   !- Hour 3
    0.0625,                   !- Hour 4
    0.1875,                   !- Hour 5
    0.390625,                 !- Hour 6
    0.4375,                   !- Hour 7
    0.390625,                 !- Hour 8
    0.171875,                 !- Hour 9
    0.1171875,                !- Hour 10
    0.1171875,                !- Hour 11
    0.1171875,                !- Hour 12
    0.1171875,                !- Hour 13
    0.1171875,                !- Hour 14
    0.1171875,                !- Hour 15
    0.203125,                 !- Hour 16
    0.4375,                   !- Hour 17
    0.609375,                 !- Hour 18
    0.8203125,                !- Hour 19
    0.984375,                 !- Hour 20
    1,                        !- Hour 21
    0.6875,                   !- Hour 22
    0.3828125,                !- Hour 23
    0.15625;                  !- Hour 24

Schedule:Day:Hourly,
    LightingDay_EELighting_OccSensors,    !- Name
    Fraction,                 !- Schedule Type Limits Name
    0.065170403,              !- Hour 1
    0.065170403,              !- Hour 2
    0.065170403,              !- Hour 3
    0.065170403,              !- Hour 4
    0.195511208,              !- Hour 5
    0.407315016,              !- Hour 6
    0.456192818,              !- Hour 7
    0.407315016,              !- Hour 8
    0.179218607,              !- Hour 9
    0.122194505,              !- Hour 10
    0.122194505,              !- Hour 11
    0.122194505,              !- Hour 12
    0.122194505,              !- Hour 13
    0.122194505,              !- Hour 14
    0.122194505,              !- Hour 15
    0.211803808,              !- Hour 16
    0.456192818,              !- Hour 17
    0.635411425,              !- Hour 18
    0.855361533,              !- Hour 19
    0.947933128,              !- Hour 20
    0.947933128,              !- Hour 21
    0.716874428,              !- Hour 22
    0.399168715,              !- Hour 23
    0.162926006;              !- Hour 24

Schedule:Day:Hourly,
    LightingDay_EELighting_Garage_OccSensors,    !- Name
    Fraction,                 !- Schedule Type Limits Name
    0.048125,                 !- Hour 1
    0.048125,                 !- Hour 2
    0.048125,                 !- Hour 3
    0.048125,                 !- Hour 4
    0.144375,                 !- Hour 5
    0.30078125,               !- Hour 6
    0.336875,                 !- Hour 7
    0.30078125,               !- Hour 8
    0.13234375,               !- Hour 9
    0.090234375,              !- Hour 10
    0.090234375,              !- Hour 11
    0.090234375,              !- Hour 12
    0.090234375,              !- Hour 13
    0.090234375,              !- Hour 14
    0.090234375,              !- Hour 15
    0.15640625,               !- Hour 16
    0.336875,                 !- Hour 17
    0.46921875,               !- Hour 18
    0.631640625,              !- Hour 19
    0.7,                      !- Hour 20
    0.7,                      !- Hour 21
    0.529375,                 !- Hour 22
    0.294765625,              !- Hour 23
    0.1203125;                !- Hour 24

Schedule:Day:Hourly,
    ExteriorLightingDay,      !- Name
    Fraction,                 !- Schedule Type Limits Name
    1,                        !- Hour 1
    1,                        !- Hour 2
    1,                        !- Hour 3
    1,                        !- Hour 4
    1,                        !- Hour 5
    1,                        !- Hour 6
    0,                        !- Hour 7
    0,                        !- Hour 8
    0,                        !- Hour 9
    0,                        !- Hour 10
    0,                        !- Hour 11
    0,                        !- Hour 12
    0,                        !- Hour 13
    0,                        !- Hour 14
    0,                        !- Hour 15
    0,                        !- Hour 16
    0,                        !- Hour 17
    0,                        !- Hour 18
    1,                        !- Hour 19
    1,                        !- Hour 20
    1,                        !- Hour 21
    1,                        !- Hour 22
    1,                        !- Hour 23
    1;                        !- Hour 24

Schedule:Day:Hourly,
    LightingDay_EELighting,    !- Name
    Fraction,                 !- Schedule Type Limits Name
    0.06875,                  !- Hour 1
    0.06875,                  !- Hour 2
    0.06875,                  !- Hour 3
    0.06875,                  !- Hour 4
    0.20625,                  !- Hour 5
    0.4296875,                !- Hour 6
    0.48125,                  !- Hour 7
    0.4296875,                !- Hour 8
    0.1890625,                !- Hour 9
    0.12890625,               !- Hour 10
    0.12890625,               !- Hour 11
    0.12890625,               !- Hour 12
    0.12890625,               !- Hour 13
    0.12890625,               !- Hour 14
    0.12890625,               !- Hour 15
    0.2234375,                !- Hour 16
    0.48125,                  !- Hour 17
    0.6703125,                !- Hour 18
    0.90234375,               !- Hour 19
    1,                        !- Hour 20
    1,                        !- Hour 21
    0.75625,                  !- Hour 22
    0.42109375,               !- Hour 23
    0.171875;                 !- Hour 24

Schedule:Day:Hourly,
    RefrigeratorDay,          !- Name
    Fraction,                 !- Schedule Type Limits Name
    0.8,                      !- Hour 1
    0.782696177062374,        !- Hour 2
    0.765593561368209,        !- Hour 3
    0.742857142857143,        !- Hour 4
    0.731388329979879,        !- Hour 5
    0.731388329979879,        !- Hour 6
    0.759959758551308,        !- Hour 7
    0.8,                      !- Hour 8
    0.817102615694165,        !- Hour 9
    0.828571428571429,        !- Hour 10
    0.8,                      !- Hour 11
    0.8,                      !- Hour 12
    0.839839034205231,        !- Hour 13
    0.839839034205231,        !- Hour 14
    0.828571428571429,        !- Hour 15
    0.839839034205231,        !- Hour 16
    0.885714285714286,        !- Hour 17
    0.971428571428572,        !- Hour 18
    1,                        !- Hour 19
    0.971428571428572,        !- Hour 20
    0.942857142857143,        !- Hour 21
    0.925553319919517,        !- Hour 22
    0.885714285714286,        !- Hour 23
    0.828571428571429;        !- Hour 24

Schedule:Day:Hourly,
    MiscPlugLoadDay,          !- Name
    Fraction,                 !- Schedule Type Limits Name
    0.607490272373541,        !- Hour 1
    0.559338521400778,        !- Hour 2
    0.552853437094682,        !- Hour 3
    0.545071335927367,        !- Hour 4
    0.524481193255512,        !- Hour 5
    0.585278858625162,        !- Hour 6
    0.676232166018158,        !- Hour 7
    0.718547341115435,        !- Hour 8
    0.607490272373541,        !- Hour 9
    0.517023346303502,        !- Hour 10
    0.529182879377432,        !- Hour 11
    0.529345006485084,        !- Hour 12
    0.520428015564202,        !- Hour 13
    0.538424124513619,        !- Hour 14
    0.568741893644617,        !- Hour 15
    0.600356679636835,        !- Hour 16
    0.71011673151751,         !- Hour 17
    0.862678339818418,        !- Hour 18
    0.936608300907912,        !- Hour 19
    0.966763942931258,        !- Hour 20
    1,                        !- Hour 21
    0.976653696498055,        !- Hour 22
    0.845168612191959,        !- Hour 23
    0.73443579766537;         !- Hour 24

Schedule:Day:Hourly,
    CookingRangeDay,          !- Name
    Fraction,                 !- Schedule Type Limits Name
    0.04715848452508,         !- Hour 1
    0.04715848452508,         !- Hour 2
    0.0235458911419424,       !- Hour 3
    0.0235458911419424,       !- Hour 4
    0.04715848452508,         !- Hour 5
    0.0707043756670224,       !- Hour 6
    0.165088046958378,        !- Hour 7
    0.283017609391676,        !- Hour 8
    0.306563500533618,        !- Hour 9
    0.320771077908218,        !- Hour 10
    0.283017609391676,        !- Hour 11
    0.330176093916756,        !- Hour 12
    0.377334578441836,        !- Hour 13
    0.306563500533618,        !- Hour 14
    0.292422625400213,        !- Hour 15
    0.377334578441836,        !- Hour 16
    0.613193703308431,        !- Hour 17
    1,                        !- Hour 18
    0.778348452508004,        !- Hour 19
    0.400947171824973,        !- Hour 20
    0.235859124866596,        !- Hour 21
    0.165088046958378,        !- Hour 22
    0.103721985058698,        !- Hour 23
    0.0707043756670224;       !- Hour 24

Schedule:Day:Hourly,
    DishwasherWeekday,        !- Name
    Fraction,                 !- Schedule Type Limits Name
    0.116245943021998,        !- Hour 1
    0.0516480346195454,       !- Hour 2
    0.0386981608366388,       !- Hour 3
    0.0258240173097731,       !- Hour 4
    0.0258240173097731,       !- Hour 5
    0.0774720519293184,       !- Hour 6
    0.155019834114677,        !- Hour 7
    0.232567616300036,        !- Hour 8
    0.43938694554634,         !- Hour 9
    0.491034980165885,        !- Hour 10
    0.426437071763433,        !- Hour 11
    0.361839163360982,        !- Hour 12
    0.310115398485395,        !- Hour 13
    0.348889289578075,        !- Hour 14
    0.284291381175622,        !- Hour 15
    0.271341507392716,        !- Hour 16
    0.284291381175622,        !- Hour 17
    0.374713306887847,        !- Hour 18
    0.659080418319509,        !- Hour 19
    0.839999999999997,        !- Hour 20
    0.684904435629283,        !- Hour 21
    0.503984853948792,        !- Hour 22
    0.335939415795168,        !- Hour 23
    0.232567616300036;        !- Hour 24

Schedule:Day:Hourly,
    DishwasherWeekend,        !- Name
    Fraction,                 !- Schedule Type Limits Name
    0.124549224666426,        !- Hour 1
    0.0553371799495132,       !- Hour 2
    0.0414623151821132,       !- Hour 3
    0.0276685899747566,       !- Hour 4
    0.0276685899747566,       !- Hour 5
    0.0830057699242698,       !- Hour 6
    0.166092679408583,        !- Hour 7
    0.249179588892895,        !- Hour 8
    0.470771727371078,        !- Hour 9
    0.526108907320591,        !- Hour 10
    0.456896862603679,        !- Hour 11
    0.387684817886765,        !- Hour 12
    0.332266498377209,        !- Hour 13
    0.373809953119365,        !- Hour 14
    0.304597908402452,        !- Hour 15
    0.290723043635052,        !- Hour 16
    0.304597908402452,        !- Hour 17
    0.401478543094122,        !- Hour 18
    0.706157591056618,        !- Hour 19
    0.9,                      !- Hour 20
    0.733826181031374,        !- Hour 21
    0.539983772087991,        !- Hour 22
    0.359935088351965,        !- Hour 23
    0.249179588892895;        !- Hour 24

Schedule:Day:Hourly,
    DishwasherVacation,       !- Name
    Fraction,                 !- Schedule Type Limits Name
    0,                        !- Hour 1
    0,                        !- Hour 2
    0,                        !- Hour 3
    0,                        !- Hour 4
    0,                        !- Hour 5
    0,                        !- Hour 6
    0,                        !- Hour 7
    0,                        !- Hour 8
    0,                        !- Hour 9
    0,                        !- Hour 10
    0,                        !- Hour 11
    0,                        !- Hour 12
    0,                        !- Hour 13
    0,                        !- Hour 14
    0,                        !- Hour 15
    0,                        !- Hour 16
    0,                        !- Hour 17
    0,                        !- Hour 18
    0,                        !- Hour 19
    0,                        !- Hour 20
    0,                        !- Hour 21
    0,                        !- Hour 22
    0,                        !- Hour 23
    0;                        !- Hour 24

Schedule:Day:Hourly,
    ClothesWasherWeekday,     !- Name
    Fraction,                 !- Schedule Type Limits Name
    0.0799138323371462,       !- Hour 1
    0.063913953700052,        !- Hour 2
    0.0319141964258626,       !- Hour 3
    0.0319141964258626,       !- Hour 4
    0.063913953700052,        !- Hour 5
    0.0959137109742402,       !- Hour 6
    0.191827421948482,        !- Hour 7
    0.415740162019479,        !- Hour 8
    0.623653023453381,        !- Hour 9
    0.735652173913043,        !- Hour 10
    0.71965229527595,         !- Hour 11
    0.639652902090476,        !- Hour 12
    0.575653387542098,        !- Hour 13
    0.511739433842046,        !- Hour 14
    0.447739919293667,        !- Hour 15
    0.415740162019479,        !- Hour 16
    0.431740040656573,        !- Hour 17
    0.415740162019479,        !- Hour 18
    0.415740162019479,        !- Hour 19
    0.415740162019479,        !- Hour 20
    0.415740162019479,        !- Hour 21
    0.399740283382384,        !- Hour 22
    0.271826815133954,        !- Hour 23
    0.143913346885524;        !- Hour 24

Schedule:Day:Hourly,
    ClothesWasherWeekend,     !- Name
    Fraction,                 !- Schedule Type Limits Name
    0.0977669225401257,       !- Hour 1
    0.0781926029309142,       !- Hour 2
    0.0390439637124913,       !- Hour 3
    0.0390439637124913,       !- Hour 4
    0.0781926029309142,       !- Hour 5
    0.117341242149337,        !- Hour 6
    0.234682484298674,        !- Hour 7
    0.508618283321703,        !- Hour 8
    0.762979762735519,        !- Hour 9
    0.9,                      !- Hour 10
    0.880425680390789,        !- Hour 11
    0.782554082344731,        !- Hour 12
    0.704256803907886,        !- Hour 13
    0.626064200976972,        !- Hour 14
    0.547766922540126,        !- Hour 15
    0.508618283321703,        !- Hour 16
    0.528192602930914,        !- Hour 17
    0.508618283321703,        !- Hour 18
    0.508618283321703,        !- Hour 19
    0.508618283321703,        !- Hour 20
    0.508618283321703,        !- Hour 21
    0.489043963712491,        !- Hour 22
    0.332554082344731,        !- Hour 23
    0.176064200976972;        !- Hour 24

Schedule:Day:Hourly,
    ClothesWasherVacation,    !- Name
    Fraction,                 !- Schedule Type Limits Name
    0,                        !- Hour 1
    0,                        !- Hour 2
    0,                        !- Hour 3
    0,                        !- Hour 4
    0,                        !- Hour 5
    0,                        !- Hour 6
    0,                        !- Hour 7
    0,                        !- Hour 8
    0,                        !- Hour 9
    0,                        !- Hour 10
    0,                        !- Hour 11
    0,                        !- Hour 12
    0,                        !- Hour 13
    0,                        !- Hour 14
    0,                        !- Hour 15
    0,                        !- Hour 16
    0,                        !- Hour 17
    0,                        !- Hour 18
    0,                        !- Hour 19
    0,                        !- Hour 20
    0,                        !- Hour 21
    0,                        !- Hour 22
    0,                        !- Hour 23
    0;                        !- Hour 24

Schedule:Day:Hourly,
    dhw_profile_day,          !- Name
    fraction,                 !- Schedule Type Limits Name
    0.006,                    !- Hour 1
    0.003,                    !- Hour 2
    0.001,                    !- Hour 3
    0.001,                    !- Hour 4
    0.003,                    !- Hour 5
    0.021,                    !- Hour 6
    0.075,                    !- Hour 7
    0.079,                    !- Hour 8
    0.076,                    !- Hour 9
    0.067,                    !- Hour 10
    0.061,                    !- Hour 11
    0.05,                     !- Hour 12
    0.042,                    !- Hour 13
    0.038,                    !- Hour 14
    0.033,                    !- Hour 15
    0.038,                    !- Hour 16
    0.043,                    !- Hour 17
    0.058,                    !- Hour 18
    0.068,                    !- Hour 19
    0.065,                    !- Hour 20
    0.06,                     !- Hour 21
    0.047,                    !- Hour 22
    0.041,                    !- Hour 23
    0.024;                    !- Hour 24

Schedule:Day:Hourly,
    ClothesDryerWeekday,      !- Name
    Fraction,                 !- Schedule Type Limits Name
    0.0996818663838815,       !- Hour 1
    0.0598091198303289,       !- Hour 2
    0.0398727465535526,       !- Hour 3
    0.0199363732767763,       !- Hour 4
    0.0398727465535526,       !- Hour 5
    0.0598091198303289,       !- Hour 6
    0.15949098621421,         !- Hour 7
    0.31898197242842,         !- Hour 8
    0.486427370202556,        !- Hour 9
    0.685791102970318,        !- Hour 10
    0.785472969354199,        !- Hour 11
    0.817391304347826,        !- Hour 12
    0.745600222800647,        !- Hour 13
    0.677836691410393,        !- Hour 14
    0.610073160020138,        !- Hour 15
    0.578154825026511,        !- Hour 16
    0.558218451749735,        !- Hour 17
    0.546236490032885,        !- Hour 18
    0.518345705196183,        !- Hour 19
    0.510391293636256,        !- Hour 20
    0.526300116756109,        !- Hour 21
    0.546236490032885,        !- Hour 22
    0.438600212089077,        !- Hour 23
    0.239236479321316;        !- Hour 24

Schedule:Day:Hourly,
    ClothesDryerWeekend,      !- Name
    Fraction,                 !- Schedule Type Limits Name
    0.121951219512195,        !- Hour 1
    0.0731707317073171,       !- Hour 2
    0.0487804878048781,       !- Hour 3
    0.024390243902439,        !- Hour 4
    0.0487804878048781,       !- Hour 5
    0.0731707317073171,       !- Hour 6
    0.195121951219512,        !- Hour 7
    0.390243902439024,        !- Hour 8
    0.59509731460951,         !- Hour 9
    0.8389997536339,          !- Hour 10
    0.960950973146095,        !- Hour 11
    1,                        !- Hour 12
    0.912170485341217,        !- Hour 13
    0.829268292682927,        !- Hour 14
    0.746366100024637,        !- Hour 15
    0.707317073170732,        !- Hour 16
    0.682926829268293,        !- Hour 17
    0.668268046316827,        !- Hour 18
    0.634146341463415,        !- Hour 19
    0.624414880512441,        !- Hour 20
    0.643877802414388,        !- Hour 21
    0.668268046316827,        !- Hour 22
    0.536585365853659,        !- Hour 23
    0.292682926829268;        !- Hour 24

Schedule:Day:Hourly,
    ClothesDryerVacation,     !- Name
    Fraction,                 !- Schedule Type Limits Name
    0,                        !- Hour 1
    0,                        !- Hour 2
    0,                        !- Hour 3
    0,                        !- Hour 4
    0,                        !- Hour 5
    0,                        !- Hour 6
    0,                        !- Hour 7
    0,                        !- Hour 8
    0,                        !- Hour 9
    0,                        !- Hour 10
    0,                        !- Hour 11
    0,                        !- Hour 12
    0,                        !- Hour 13
    0,                        !- Hour 14
    0,                        !- Hour 15
    0,                        !- Hour 16
    0,                        !- Hour 17
    0,                        !- Hour 18
    0,                        !- Hour 19
    0,                        !- Hour 20
    0,                        !- Hour 21
    0,                        !- Hour 22
    0,                        !- Hour 23
    0;                        !- Hour 24

Schedule:Day:Hourly,
    SinksWeekday,             !- Name
    Fraction,                 !- Schedule Type Limits Name
    0.160587981154977,        !- Hour 1
    0.0770051124323654,       !- Hour 2
    0.057725481926472,        !- Hour 3
    0.057725481926472,        !- Hour 4
    0.0770051124323654,       !- Hour 5
    0.205611588865802,        !- Hour 6
    0.481877353056144,        !- Hour 7
    0.70676857242784,         !- Hour 8
    0.745327833439629,        !- Hour 9
    0.700304225728804,        !- Hour 10
    0.616834766597404,        !- Hour 11
    0.565346812187545,        !- Hour 12
    0.552531528380687,        !- Hour 13
    0.513972267368898,        !- Hour 14
    0.468948659658074,        !- Hour 15
    0.488228290163969,        !- Hour 16
    0.546067181681651,        !- Hour 17
    0.738863486740593,        !- Hour 18
    0.848076923076923,        !- Hour 19
    0.783887094451417,        !- Hour 20
    0.642465334211122,        !- Hour 21
    0.546067181681651,        !- Hour 22
    0.449782438743392,        !- Hour 23
    0.308360678503097;        !- Hour 24

Schedule:Day:Hourly,
    SinksWeekend,             !- Name
    Fraction,                 !- Schedule Type Limits Name
    0.170419898368548,        !- Hour 1
    0.0817197111527146,       !- Hour 2
    0.0612596951056432,       !- Hour 3
    0.0612596951056432,       !- Hour 4
    0.0817197111527146,       !- Hour 5
    0.218200053490238,        !- Hour 6
    0.511380048141214,        !- Hour 7
    0.750040117678524,        !- Hour 8
    0.790960149772666,        !- Hour 9
    0.743179994650976,        !- Hour 10
    0.654600160470714,        !- Hour 11
    0.599959882321476,        !- Hour 12
    0.586359989301953,        !- Hour 13
    0.545439957207809,        !- Hour 14
    0.49765980208612,         !- Hour 15
    0.51811981813319,         !- Hour 16
    0.579499866274405,        !- Hour 17
    0.784100026745119,        !- Hour 18
    0.9,                      !- Hour 19
    0.83188018186681,         !- Hour 20
    0.681799946509762,        !- Hour 21
    0.579499866274405,        !- Hour 22
    0.477320139074619,        !- Hour 23
    0.327239903717572;        !- Hour 24

Schedule:Day:Hourly,
    SinksVacation,            !- Name
    Fraction,                 !- Schedule Type Limits Name
    0,                        !- Hour 1
    0,                        !- Hour 2
    0,                        !- Hour 3
    0,                        !- Hour 4
    0,                        !- Hour 5
    0,                        !- Hour 6
    0,                        !- Hour 7
    0,                        !- Hour 8
    0,                        !- Hour 9
    0,                        !- Hour 10
    0,                        !- Hour 11
    0,                        !- Hour 12