!- Darwin Line endings 

Version,
    8.9;                      !- Version Identifier

SimulationControl,
    No,                       !- Do Zone Sizing Calculation
    No,                       !- Do System Sizing Calculation
    No,                       !- Do Plant Sizing Calculation
    Yes,                      !- Run Simulation for Sizing Periods
    No;                       !- Run Simulation for Weather File Run Periods

Building,
    Adult Education Center,    !- Name
    0,                        !- North Axis
    Suburbs,                  !- Terrain
    0.04,                     !- Loads Convergence Tolerance Value
    0.4,                      !- Temperature Convergence Tolerance Value
    MinimalShadowing,         !- Solar Distribution
    25,                       !- Maximum Number of Warmup Days
    6;                        !- Minimum Number of Warmup Days

SurfaceConvectionAlgorithm:Inside,
    Simple;                   !- Algorithm

SurfaceConvectionAlgorithm:Outside,
    SimpleCombined;           !- Algorithm

HeatBalanceAlgorithm,
    ConductionTransferFunction;    !- Algorithm

Timestep,
    4;                        !- Number of Timesteps per Hour

Site:Location,
    CHICAGO_IL_USA Design_Conditions,    !- Name
    41.78,                    !- Latitude
    -87.75,                   !- Longitude
    -6,                       !- Time Zone
    190;                      !- Elevation

SizingPeriod:DesignDay,
    CHICAGO Ann Htg 99% Condns DB,    !- Name
    1,                        !- Month
    21,                       !- Day of Month
    WinterDesignDay,          !- Day Type
    -17.3,                    !- Maximum DryBulb Temperature
    0,                        !- Daily DryBulb Temperature Range
    ,                         !- DryBulb Temperature Range Modifier Type
    ,                         !- DryBulb Temperature Range Modifier Day Schedule Name
    Wetbulb,                  !- Humidity Condition Type
    -17.3,                    !- Wetbulb or DewPoint at Maximum DryBulb
    ,                         !- Humidity Condition Day Schedule Name
    ,                         !- Humidity Ratio at Maximum DryBulb
    ,                         !- Enthalpy at Maximum DryBulb
    ,                         !- Daily WetBulb Temperature Range
    99063,                    !- Barometric Pressure
    4.9,                      !- Wind Speed
    270,                      !- Wind Direction
    No,                       !- Rain Indicator
    No,                       !- Snow Indicator
    No,                       !- Daylight Saving Time Indicator
    ASHRAEClearSky,           !- Solar Model Indicator
    ,                         !- Beam Solar Day Schedule Name
    ,                         !- Diffuse Solar Day Schedule Name
    ,                         !- ASHRAE Clear Sky Optical Depth for Beam Irradiance taub
    ,                         !- ASHRAE Clear Sky Optical Depth for Diffuse Irradiance taud
    0;                        !- Sky Clearness

SizingPeriod:DesignDay,
    CHICAGO Ann Clg 1% Condns DB=>MWB,    !- Name
    7,                        !- Month
    21,                       !- Day of Month
    SummerDesignDay,          !- Day Type
    31.5,                     !- Maximum DryBulb Temperature
    10.7,                     !- Daily DryBulb Temperature Range
    ,                         !- DryBulb Temperature Range Modifier Type
    ,                         !- DryBulb Temperature Range Modifier Day Schedule Name
    Wetbulb,                  !- Humidity Condition Type
    23,                       !- Wetbulb or DewPoint at Maximum DryBulb
    ,                         !- Humidity Condition Day Schedule Name
    ,                         !- Humidity Ratio at Maximum DryBulb
    ,                         !- Enthalpy at Maximum DryBulb
    ,                         !- Daily WetBulb Temperature Range
    99063,                    !- Barometric Pressure
    5.3,                      !- Wind Speed
    230,                      !- Wind Direction
    No,                       !- Rain Indicator
    No,                       !- Snow Indicator
    No,                       !- Daylight Saving Time Indicator
    ASHRAEClearSky,           !- Solar Model Indicator
    ,                         !- Beam Solar Day Schedule Name
    ,                         !- Diffuse Solar Day Schedule Name
    ,                         !- ASHRAE Clear Sky Optical Depth for Beam Irradiance taub
    ,                         !- ASHRAE Clear Sky Optical Depth for Diffuse Irradiance taud
    1;                        !- Sky Clearness

RunPeriod,
    ,                         !- Name
    1,                        !- Begin Month
    1,                        !- Begin Day of Month
    12,                       !- End Month
    31,                       !- End Day of Month
    Tuesday,                  !- Day of Week for Start Day
    No,                       !- Use Weather File Holidays and Special Days
    No,                       !- Use Weather File Daylight Saving Period
    No,                       !- Apply Weekend Holiday Rule
    No,                       !- Use Weather File Rain Indicators
    No;                       !- Use Weather File Snow Indicators

ScheduleTypeLimits,
    Any Number;               !- Name

ScheduleTypeLimits,
    Fraction,                 !- Name
    0.0,                      !- Lower Limit Value
    1.0,                      !- Upper Limit Value
    Continuous;               !- Numeric Type

ScheduleTypeLimits,
    on/off,                   !- Name
    0.0,                      !- Lower Limit Value
    1.0,                      !- Upper Limit Value
    Discrete;                 !- Numeric Type

ScheduleTypeLimits,
    Temperature,              !- Name
    -60.0,                    !- Lower Limit Value
    200.0,                    !- Upper Limit Value
    Continuous;               !- Numeric Type

ScheduleTypeLimits,
    ControlType,              !- Name
    0.0,                      !- Lower Limit Value
    4.0,                      !- Upper Limit Value
    Discrete;                 !- Numeric Type

Schedule:Compact,
    Office Occupancy,         !- Name
    Fraction,                 !- Schedule Type Limits Name
    Through: 12/31,           !- Field 1
    For: Weekdays SummerDesignDay,    !- Field 2
    Until: 08:00,             !- Field 3
    0.0,                      !- Field 4
    Until: 12:00,             !- Field 5
    0.95,                     !- Field 6
    Until: 13:00,             !- Field 7
    0.5,                      !- Field 8
    Until: 17:00,             !- Field 9
    0.95,                     !- Field 10
    Until: 24:00,             !- Field 11
    0.0,                      !- Field 12
    For: Saturday WinterDesignDay,    !- Field 13
    Until: 08:00,             !- Field 14
    0.0,                      !- Field 15
    Until: 12:00,             !- Field 16
    0.3,                      !- Field 17
    Until: 24:00,             !- Field 18
    0.0,                      !- Field 19
    For: Sunday Holidays AllOtherDays,    !- Field 20
    Until: 24:00,             !- Field 21
    0.0;                      !- Field 22

Schedule:Compact,
    Office Lighting and Receptacles,    !- Name
    Fraction,                 !- Schedule Type Limits Name
    Through: 12/31,           !- Field 1
    For: Weekdays SummerDesignDay,    !- Field 2
    Until: 05:00,             !- Field 3
    0.05,                     !- Field 4
    Until: 07:00,             !- Field 5
    0.1,                      !- Field 6
    Until: 08:00,             !- Field 7
    0.3,                      !- Field 8
    Until: 17:00,             !- Field 9
    0.9,                      !- Field 10
    Until: 18:00,             !- Field 11
    0.5,                      !- Field 12
    Until: 20:00,             !- Field 13
    0.3,                      !- Field 14
    Until: 22:00,             !- Field 15
    0.2,                      !- Field 16
    Until: 23:00,             !- Field 17
    0.1,                      !- Field 18
    Until: 24:00,             !- Field 19
    0.05,                     !- Field 20
    For: Saturday WinterDesignDay,    !- Field 21
    Until: 06:00,             !- Field 22
    0.05,                     !- Field 23
    Until: 08:00,             !- Field 24
    0.1,                      !- Field 25
    Until: 12:00,             !- Field 26
    0.3,                      !- Field 27
    Until: 17:00,             !- Field 28
    0.15,                     !- Field 29
    Until: 24:00,             !- Field 30
    0.05,                     !- Field 31
    For: Sunday Holidays AllOtherDays,    !- Field 32
    Until: 24:00,             !- Field 33
    0.05;                     !- Field 34

Schedule:Compact,
    On,                       !- Name
    on/off,                   !- Schedule Type Limits Name
    Through: 12/31,           !- Field 1
    For: AllDays,             !- Field 2
    Until: 24:00,             !- Field 3
    1.0;                      !- Field 4

Schedule:Compact,
    Activity Lvl   1,         !- Name
    Any Number,               !- Schedule Type Limits Name
    Through:12/31,            !- Field 1
    For: AllDays,             !- Field 2
    Until: 24:00,             !- Field 3
    131.8;                    !- Field 4

Schedule:Compact,
    Htg-SetP-Sch,             !- Name
    Temperature,              !- Schedule Type Limits Name
    Through: 12/31,           !- Field 1
    For: WeekDays CustomDay1 CustomDay2,    !- Field 2
    Until: 6:00,              !- Field 3
    13.0,                     !- Field 4
    Until: 7:00,              !- Field 5
    18.0,                     !- Field 6
    Until: 21:00,             !- Field 7
    23.0,                     !- Field 8
    Until: 24:00,             !- Field 9
    13.0,                     !- Field 10
    For: WeekEnds Holiday,    !- Field 11
    Until: 24:00,             !- Field 12
    13.0,                     !- Field 13
    For: SummerDesignDay,     !- Field 14
    Until: 24:00,             !- Field 15
    13.0,                     !- Field 16
    For: WinterDesignDay,     !- Field 17
    Until: 24:00,             !- Field 18
    23.0;                     !- Field 19

Schedule:Compact,
    Clg-SetP-Sch,             !- Name
    Temperature,              !- Schedule Type Limits Name
    Through: 12/31,           !- Field 1
    For: WeekDays CustomDay1 CustomDay2,    !- Field 2
    Until: 7:00,              !- Field 3
    32.0,                     !- Field 4
    Until: 21:00,             !- Field 5
    24.0,                     !- Field 6
    Until: 24:00,             !- Field 7
    32.0,                     !- Field 8
    For: WeekEnds Holiday,    !- Field 9
    Until: 24:00,             !- Field 10
    32.0,                     !- Field 11
    For: SummerDesignDay,     !- Field 12
    Until: 24:00,             !- Field 13
    24.0,                     !- Field 14
    For: WinterDesignDay,     !- Field 15
    Until: 24:00,             !- Field 16
    32.0;                     !- Field 17

Schedule:Compact,
    FanAvailSched,            !- Name
    Fraction,                 !- Schedule Type Limits Name
    Through: 12/31,           !- Field 1
    For: WeekDays CustomDay1 CustomDay2,    !- Field 2
    Until: 7:00,              !- Field 3
    0.0,                      !- Field 4
    Until: 21:00,             !- Field 5
    1.0,                      !- Field 6
    Until: 24:00,             !- Field 7
    0.0,                      !- Field 8
    For: Weekends Holiday,    !- Field 9
    Until: 24:00,             !- Field 10
    0.0,                      !- Field 11
    For: SummerDesignDay,     !- Field 12
    Until: 24:00,             !- Field 13
    1.0,                      !- Field 14
    For: WinterDesignDay,     !- Field 15
    Until: 24:00,             !- Field 16
    1.0;                      !- Field 17

Schedule:Compact,
    Min OA Sched,             !- Name
    Fraction,                 !- Schedule Type Limits Name
    Through: 12/31,           !- Field 1
    For: WeekDays CustomDay1 CustomDay2,    !- Field 2
    Until: 8:00,              !- Field 3
    0.0,                      !- Field 4
    Until: 21:00,             !- Field 5
    1.0,                      !- Field 6
    Until: 24:00,             !- Field 7
    0.0,                      !- Field 8
    For: Weekends Holiday,    !- Field 9
    Until: 24:00,             !- Field 10
    0.0,                      !- Field 11
    For: SummerDesignDay,     !- Field 12
    Until: 24:00,             !- Field 13
    1.0,                      !- Field 14
    For: WinterDesignDay,     !- Field 15
    Until: 24:00,             !- Field 16
    1.0;                      !- Field 17

Material,
    G05 25mm wood,            !- Name
    MediumSmooth,             !- Roughness
    0.0254,                   !- Thickness
    0.15,                     !- Conductivity
    608,                      !- Density
    1630;                     !- Specific Heat

Material,
    G01a 19mm gypsum board,    !- Name
    MediumSmooth,             !- Roughness
    0.019,                    !- Thickness
    0.16,                     !- Conductivity
    800,                      !- Density
    1090;                     !- Specific Heat

Material,
    M01 100mm brick,          !- Name
    MediumRough,              !- Roughness
    0.1016,                   !- Thickness
    0.89,                     !- Conductivity
    1920,                     !- Density
    790;                      !- Specific Heat

Material,
    I02 50mm insulation board,    !- Name
    MediumRough,              !- Roughness
    0.0508,                   !- Thickness
    0.03,                     !- Conductivity
    43,                       !- Density
    1210;                     !- Specific Heat

Material,
    M14a 100mm heavyweight concrete,    !- Name
    MediumRough,              !- Roughness
    0.1016,                   !- Thickness
    1.95,                     !- Conductivity
    2240,                     !- Density
    900;                      !- Specific Heat

Material,
    F16 Acoustic tile,        !- Name
    MediumSmooth,             !- Roughness
    0.0191,                   !- Thickness
    0.06,                     !- Conductivity
    368,                      !- Density
    590;                      !- Specific Heat

Material,
    M05 200mm concrete block,    !- Name
    MediumRough,              !- Roughness
    0.2032,                   !- Thickness
    1.11,                     !- Conductivity
    800,                      !- Density
    920;                      !- Specific Heat

Material:AirGap,
    F04 Wall air space resistance,    !- Name
    0.15;                     !- Thermal Resistance

Material:AirGap,
    F05 Ceiling air space resistance,    !- Name
    0.18;                     !- Thermal Resistance

WindowMaterial:Glazing,
    CLEAR 3MM,                !- Name
    SpectralAverage,          !- Optical Data Type
    ,                         !- Window Glass Spectral Data Set Name
    0.003,                    !- Thickness
    0.837,                    !- Solar Transmittance at Normal Incidence
    0.075,                    !- Front Side Solar Reflectance at Normal Incidence
    0.075,                    !- Back Side Solar Reflectance at Normal Incidence
    0.898,                    !- Visible Transmittance at Normal Incidence
    0.081,                    !- Front Side Visible Reflectance at Normal Incidence
    0.081,                    !- Back Side Visible Reflectance at Normal Incidence
    0,                        !- Infrared Transmittance at Normal Incidence
    0.84,                     !- Front Side Infrared Hemispherical Emissivity
    0.84,                     !- Back Side Infrared Hemispherical Emissivity
    0.9;                      !- Conductivity

WindowMaterial:Gas,
    AIR 13MM,                 !- Name
    Air,                      !- Gas Type
    0.0127;                   !- Thickness

Construction,
    Double Pane Window,       !- Name
    CLEAR 3MM,                !- Outside Layer
    AIR 13MM,                 !- Layer 2
    CLEAR 3MM;                !- Layer 3

Construction,
    Medium Exterior Wall,     !- Name
    M01 100mm brick,          !- Outside Layer
    I02 50mm insulation board,    !- Layer 2
    F04 Wall air space resistance,    !- Layer 3
    G01a 19mm gypsum board;    !- Layer 4

Construction,
    Medium Roof/Ceiling,      !- Name
    M14a 100mm heavyweight concrete,    !- Outside Layer
    F05 Ceiling air space resistance,    !- Layer 2
    F16 Acoustic tile;        !- Layer 3

Construction,
    Medium Partitions,        !- Name
    G01a 19mm gypsum board,    !- Outside Layer
    F04 Wall air space resistance,    !- Layer 2
    G01a 19mm gypsum board;    !- Layer 3

Construction,
    Medium/Heavy Partitions,    !- Name
    G01a 19mm gypsum board,    !- Outside Layer
    M01 100mm brick,          !- Layer 2
    M05 200mm concrete block,    !- Layer 3
    G01a 19mm gypsum board;    !- Layer 4

Construction,
    Medium Floor,             !- Name
    F16 Acoustic tile,        !- Outside Layer
    F05 Ceiling air space resistance,    !- Layer 2
    M14a 100mm heavyweight concrete;    !- Layer 3

GlobalGeometryRules,
    UpperLeftCorner,          !- Starting Vertex Position
    Counterclockwise,         !- Vertex Entry Direction
    WorldCoordinateSystem;    !- Coordinate System

Zone,
    Full Building - 1 Zone,    !- Name
    0,                        !- Direction of Relative North
    0,                        !- X Origin
    0,                        !- Y Origin
    0,                        !- Z Origin
    1,                        !- Type
    1,                        !- Multiplier
    Autocalculate,            !- Ceiling Height
    Autocalculate;            !- Volume

BuildingSurface:Detailed,
    Zn001:Wall001,            !- Name
    Wall,                     !- Surface Type
    Medium Exterior Wall,     !- Construction Name
    Full Building - 1 Zone,    !- Zone Name
    Outdoors,                 !- Outside Boundary Condition
    ,                         !- Outside Boundary Condition Object
    SunExposed,               !- Sun Exposure
    WindExposed,              !- Wind Exposure
    0.5,                      !- View Factor to Ground
    4.0,                      !- Number of Vertices
    0,                        !- Vertex 1 Xcoordinate
    0,                        !- Vertex 1 Ycoordinate
    3.048,                    !- Vertex 1 Zcoordinate
    0,                        !- Vertex 2 Xcoordinate
    0,                        !- Vertex 2 Ycoordinate
    0,                        !- Vertex 2 Zcoordinate
    15.24,                    !- Vertex 3 Xcoordinate
    0,                        !- Vertex 3 Ycoordinate
    0,                        !- Vertex 3 Zcoordinate
    15.24,                    !- Vertex 4 Xcoordinate
    0,                        !- Vertex 4 Ycoordinate
    3.048;                    !- Vertex 4 Zcoordinate

BuildingSurface:Detailed,
    Zn001:Wall002,            !- Name
    Wall,                     !- Surface Type
    Medium Exterior Wall,     !- Construction Name
    Full Building - 1 Zone,    !- Zone Name
    Outdoors,                 !- Outside Boundary Condition
    ,                         !- Outside Boundary Condition Object
    SunExposed,               !- Sun Exposure
    WindExposed,              !- Wind Exposure
    0.5,                      !- View Factor to Ground
    4.0,                      !- Number of Vertices
    15.24,                    !- Vertex 1 Xcoordinate
    0,                        !- Vertex 1 Ycoordinate
    3.048,                    !- Vertex 1 Zcoordinate
    15.24,                    !- Vertex 2 Xcoordinate
    0,                        !- Vertex 2 Ycoordinate
    0,                        !- Vertex 2 Zcoordinate
    15.24,                    !- Vertex 3 Xcoordinate
    4.8768,                   !- Vertex 3 Ycoordinate
    0,                        !- Vertex 3 Zcoordinate
    15.24,                    !- Vertex 4 Xcoordinate
    4.8768,                   !- Vertex 4 Ycoordinate
    3.048;                    !- Vertex 4 Zcoordinate

BuildingSurface:Detailed,
    Zn001:Wall003,            !- Name
    Wall,                     !- Surface Type
    Medium Exterior Wall,     !- Construction Name
    Full Building - 1 Zone,    !- Zone Name
    Outdoors,                 !- Outside Boundary Condition
    ,                         !- Outside Boundary Condition Object
    SunExposed,               !- Sun Exposure
    WindExposed,              !- Wind Exposure
    0.5,                      !- View Factor to Ground
    4.0,                      !- Number of Vertices
    15.24,                    !- Vertex 1 Xcoordinate
    4.8768,                   !- Vertex 1 Ycoordinate
    3.048,                    !- Vertex 1 Zcoordinate
    15.24,                    !- Vertex 2 Xcoordinate
    4.8768,                   !- Vertex 2 Ycoordinate
    0,                        !- Vertex 2 Zcoordinate
    49.6824,                  !- Vertex 3 Xcoordinate
    4.876801,                 !- Vertex 3 Ycoordinate
    0,                        !- Vertex 3 Zcoordinate
    49.6824,                  !- Vertex 4 Xcoordinate
    4.876801,                 !- Vertex 4 Ycoordinate
    3.048;                    !- Vertex 4 Zcoordinate

BuildingSurface:Detailed,
    Zn001:Wall004,            !- Name
    Wall,                     !- Surface Type
    Medium Exterior Wall,     !- Construction Name
    Full Building - 1 Zone,    !- Zone Name
    Outdoors,                 !- Outside Boundary Condition
    ,                         !- Outside Boundary Condition Object
    SunExposed,               !- Sun Exposure
    WindExposed,              !- Wind Exposure
    0.5,                      !- View Factor to Ground
    4.0,                      !- Number of Vertices
    49.6824,                  !- Vertex 1 Xcoordinate
    4.8768,                   !- Vertex 1 Ycoordinate
    3.048,                    !- Vertex 1 Zcoordinate
    49.6824,                  !- Vertex 2 Xcoordinate
    4.8768,                   !- Vertex 2 Ycoordinate
    0,                        !- Vertex 2 Zcoordinate
    49.6824,                  !- Vertex 3 Xcoordinate
    18.07464,                 !- Vertex 3 Ycoordinate
    0,                        !- Vertex 3 Zcoordinate
    49.6824,                  !- Vertex 4 Xcoordinate
    18.07464,                 !- Vertex 4 Ycoordinate
    3.048;                    !- Vertex 4 Zcoordinate

BuildingSurface:Detailed,
    Zn001:Wall005,            !- Name
    Wall,                     !- Surface Type
    Medium Exterior Wall,     !- Construction Name
    Full Building - 1 Zone,    !- Zone Name
    Outdoors,                 !- Outside Boundary Condition
    ,                         !- Outside Boundary Condition Object
    SunExposed,               !- Sun Exposure
    WindExposed,              !- Wind Exposure
    0.5,                      !- View Factor to Ground
    4.0,                      !- Number of Vertices
    49.6824,                  !- Vertex 1 Xcoordinate
    18.07464,                 !- Vertex 1 Ycoordinate
    3.048,                    !- Vertex 1 Zcoordinate
    49.6824,                  !- Vertex 2 Xcoordinate
    18.07464,                 !- Vertex 2 Ycoordinate
    0,                        !- Vertex 2 Zcoordinate
    39.3192,                  !- Vertex 3 Xcoordinate
    18.07464,                 !- Vertex 3 Ycoordinate
    0,                        !- Vertex 3 Zcoordinate
    39.3192,                  !- Vertex 4 Xcoordinate
    18.07464,                 !- Vertex 4 Ycoordinate
    3.048;                    !- Vertex 4 Zcoordinate

BuildingSurface:Detailed,
    Zn001:Wall006,            !- Name
    Wall,                     !- Surface Type
    Medium Exterior Wall,     !- Construction Name
    Full Building - 1 Zone,    !- Zone Name
    Outdoors,                 !- Outside Boundary Condition
    ,                         !- Outside Boundary Condition Object
    SunExposed,               !- Sun Exposure
    WindExposed,              !- Wind Exposure
    0.5,                      !- View Factor to Ground
    4.0,                      !- Number of Vertices
    39.3192,                  !- Vertex 1 Xcoordinate
    18.07464,                 !- Vertex 1 Ycoordinate
    3.048,                    !- Vertex 1 Zcoordinate
    39.3192,                  !- Vertex 2 Xcoordinate
    18.07464,                 !- Vertex 2 Ycoordinate
    0,                        !- Vertex 2 Zcoordinate
    39.3192,                  !- Vertex 3 Xcoordinate
    37.88664,                 !- Vertex 3 Ycoordinate
    0,                        !- Vertex 3 Zcoordinate
    39.3192,                  !- Vertex 4 Xcoordinate
    37.88664,                 !- Vertex 4 Ycoordinate
    3.048;                    !- Vertex 4 Zcoordinate

BuildingSurface:Detailed,
    Zn001:Wall007,            !- Name
    Wall,                     !- Surface Type
    Medium Exterior Wall,     !- Construction Name
    Full Building - 1 Zone,    !- Zone Name
    Outdoors,                 !- Outside Boundary Condition
    ,                         !- Outside Boundary Condition Object
    SunExposed,               !- Sun Exposure
    WindExposed,              !- Wind Exposure
    0.5,                      !- View Factor to Ground
    4.0,                      !- Number of Vertices
    39.3192,                  !- Vertex 1 Xcoordinate
    37.88664,                 !- Vertex 1 Ycoordinate
    3.048,                    !- Vertex 1 Zcoordinate
    39.3192,                  !- Vertex 2 Xcoordinate
    37.88664,                 !- Vertex 2 Ycoordinate
    0,                        !- Vertex 2 Zcoordinate
    27.432,                   !- Vertex 3 Xcoordinate
    37.88664,                 !- Vertex 3 Ycoordinate
    0,                        !- Vertex 3 Zcoordinate
    27.432,                   !- Vertex 4 Xcoordinate
    37.88664,                 !- Vertex 4 Ycoordinate
    3.048;                    !- Vertex 4 Zcoordinate

BuildingSurface:Detailed,
    Zn001:Wall008,            !- Name
    Wall,                     !- Surface Type
    Medium Exterior Wall,     !- Construction Name
    Full Building - 1 Zone,    !- Zone Name
    Outdoors,                 !- Outside Boundary Condition
    ,                         !- Outside Boundary Condition Object
    SunExposed,               !- Sun Exposure
    WindExposed,              !- Wind Exposure
    0.5,                      !- View Factor to Ground
    4.0,                      !- Number of Vertices
    27.432,                   !- Vertex 1 Xcoordinate
    37.88664,                 !- Vertex 1 Ycoordinate
    3.048,                    !- Vertex 1 Zcoordinate
    27.432,                   !- Vertex 2 Xcoordinate
    37.88664,                 !- Vertex 2 Ycoordinate
    0,                        !- Vertex 2 Zcoordinate
    27.432,                   !- Vertex 3 Xcoordinate
    18.07464,                 !- Vertex 3 Ycoordinate
    0,                        !- Vertex 3 Zcoordinate
    27.432,                   !- Vertex 4 Xcoordinate
    18.07464,                 !- Vertex 4 Ycoordinate
    3.048;                    !- Vertex 4 Zcoordinate

BuildingSurface:Detailed,
    Zn001:Wall009,            !- Name
    Wall,                     !- Surface Type
    Medium Exterior Wall,     !- Construction Name
    Full Building - 1 Zone,    !- Zone Name
    Outdoors,                 !- Outside Boundary Condition
    ,                         !- Outside Boundary Condition Object
    SunExposed,               !- Sun Exposure
    WindExposed,              !- Wind Exposure
    0.5,                      !- View Factor to Ground
    4.0,                      !- Number of Vertices
    27.432,                   !- Vertex 1 Xcoordinate
    18.07464,                 !- Vertex 1 Ycoordinate
    3.048,                    !- Vertex 1 Zcoordinate
    27.432,                   !- Vertex 2 Xcoordinate
    18.07464,                 !- Vertex 2 Ycoordinate
    0,                        !- Vertex 2 Zcoordinate
    21.336,                   !- Vertex 3 Xcoordinate
    18.07464,                 !- Vertex 3 Ycoordinate
    0,                        !- Vertex 3 Zcoordinate
    21.336,                   !- Vertex 4 Xcoordinate
    18.07464,                 !- Vertex 4 Ycoordinate
    3.048;                    !- Vertex 4 Zcoordinate

BuildingSurface:Detailed,
    Zn001:Wall010,            !- Name
    Wall,                     !- Surface Type
    Medium Exterior Wall,     !- Construction Name
    Full Building - 1 Zone,    !- Zone Name
    Outdoors,                 !- Outside Boundary Condition
    ,                         !- Outside Boundary Condition Object
    SunExposed,               !- Sun Exposure
    WindExposed,              !- Wind Exposure
    0.5,                      !- View Factor to Ground
    4.0,                      !- Number of Vertices
    21.336,                   !- Vertex 1 Xcoordinate
    18.07464,                 !- Vertex 1 Ycoordinate
    3.048,                    !- Vertex 1 Zcoordinate
    21.336,                   !- Vertex 2 Xcoordinate
    18.07464,                 !- Vertex 2 Ycoordinate
    0,                        !- Vertex 2 Zcoordinate
    21.336,                   !- Vertex 3 Xcoordinate
    15.02664,                 !- Vertex 3 Ycoordinate
    0,                        !- Vertex 3 Zcoordinate
    21.336,                   !- Vertex 4 Xcoordinate
    15.02664,                 !- Vertex 4 Ycoordinate
    3.048;                    !- Vertex 4 Zcoordinate

BuildingSurface:Detailed,
    Zn001:Wall011,            !- Name
    Wall,                     !- Surface Type
    Medium Exterior Wall,     !- Construction Name
    Full Building - 1 Zone,    !- Zone Name
    Outdoors,                 !- Outside Boundary Condition
    ,                         !- Outside Boundary Condition Object