!- Darwin Line endings

  Version,9.2;

  SimulationControl,
    Yes,                     !- Do Zone Sizing Calculation
    Yes,                     !- Do System Sizing Calculation
    Yes,                     !- Do Plant Sizing Calculation
    No,                      !- Run Simulation for Sizing Periods
    Yes;                     !- Run Simulation for Weather File Run Periods

  Building,
    NECB 2011-FullServiceRestaurant-NECB HDD Method-CAN_PQ_Montreal.Intl.AP.716270_CWEC.epw created:,  !- Name
    0.0,                     !- North Axis {deg}
    City,                    !- Terrain
    0.04,                    !- Loads Convergence Tolerance Value
    0.2,                     !- Temperature Convergence Tolerance Value {deltaC}
    FullInteriorAndExterior, !- Solar Distribution
    25,                      !- Maximum Number of Warmup Days
    6;                       !- Minimum Number of Warmup Days

  ShadowCalculation,
    AverageOverDaysInFrequency,  !- Calculation Method
    7,                       !- Calculation Frequency
    15000;                   !- Maximum Figures in Shadow Overlap Calculations

  SurfaceConvectionAlgorithm:Inside,TARP;

  SurfaceConvectionAlgorithm:Outside,TARP;

  HeatBalanceAlgorithm,ConductionTransferFunction,200.0;

  Timestep,6;

  ConvergenceLimits,
    1,                       !- Minimum System Timestep {minutes}
    20;                      !- Maximum HVAC Iterations

  Site:Location,
    Montreal Int'l_PQ_CAN,   !- Name
    45.47,                   !- Latitude {deg}
    -73.75,                  !- Longitude {deg}
    -5.0,                    !- Time Zone {hr}
    36.0;                    !- Elevation {m}

  SizingPeriod:DesignDay,
    Montreal Int'l Ann Clg .4% Condns DB=>MWB,  !- Name
    7,                       !- Month
    21,                      !- Day of Month
    SummerDesignDay,         !- Day Type
    30.0,                    !- Maximum Dry-Bulb Temperature {C}
    9.3,                     !- Daily Dry-Bulb Temperature Range {deltaC}
    DefaultMultipliers,      !- Dry-Bulb Temperature Range Modifier Type
    ,                        !- Dry-Bulb Temperature Range Modifier Day Schedule Name
    Wetbulb,                 !- Humidity Condition Type
    22.1,                    !- Wetbulb or DewPoint at Maximum Dry-Bulb {C}
    ,                        !- Humidity Condition Day Schedule Name
    ,                        !- Humidity Ratio at Maximum Dry-Bulb {kgWater/kgDryAir}
    ,                        !- Enthalpy at Maximum Dry-Bulb {J/kg}
    ,                        !- Daily Wet-Bulb Temperature Range {deltaC}
    100893.0,                !- Barometric Pressure {Pa}
    4.9,                     !- Wind Speed {m/s}
    220.0,                   !- Wind Direction {deg}
    No,                      !- Rain Indicator
    No,                      !- Snow Indicator
    No,                      !- Daylight Saving Time Indicator
    ASHRAETau,               !- Solar Model Indicator
    ,                        !- Beam Solar Day Schedule Name
    ,                        !- Diffuse Solar Day Schedule Name
    0.465,                   !- ASHRAE Clear Sky Optical Depth for Beam Irradiance (taub) {dimensionless}
    1.966;                   !- ASHRAE Clear Sky Optical Depth for Diffuse Irradiance (taud) {dimensionless}

  SizingPeriod:DesignDay,
    Montreal Int'l Ann Clg .4% Condns WB=>MDB,  !- Name
    7,                       !- Month
    21,                      !- Day of Month
    SummerDesignDay,         !- Day Type
    28.1,                    !- Maximum Dry-Bulb Temperature {C}
    9.3,                     !- Daily Dry-Bulb Temperature Range {deltaC}
    DefaultMultipliers,      !- Dry-Bulb Temperature Range Modifier Type
    ,                        !- Dry-Bulb Temperature Range Modifier Day Schedule Name
    Wetbulb,                 !- Humidity Condition Type
    23.2,                    !- Wetbulb or DewPoint at Maximum Dry-Bulb {C}
    ,                        !- Humidity Condition Day Schedule Name
    ,                        !- Humidity Ratio at Maximum Dry-Bulb {kgWater/kgDryAir}
    ,                        !- Enthalpy at Maximum Dry-Bulb {J/kg}
    ,                        !- Daily Wet-Bulb Temperature Range {deltaC}
    100893.0,                !- Barometric Pressure {Pa}
    4.9,                     !- Wind Speed {m/s}
    220.0,                   !- Wind Direction {deg}
    No,                      !- Rain Indicator
    No,                      !- Snow Indicator
    No,                      !- Daylight Saving Time Indicator
    ASHRAETau,               !- Solar Model Indicator
    ,                        !- Beam Solar Day Schedule Name
    ,                        !- Diffuse Solar Day Schedule Name
    0.465,                   !- ASHRAE Clear Sky Optical Depth for Beam Irradiance (taub) {dimensionless}
    1.966;                   !- ASHRAE Clear Sky Optical Depth for Diffuse Irradiance (taud) {dimensionless}

  SizingPeriod:DesignDay,
    Montreal Int'l Ann Htg 99.6% Condns DB,  !- Name
    1,                       !- Month
    21,                      !- Day of Month
    WinterDesignDay,         !- Day Type
    -23.7,                   !- Maximum Dry-Bulb Temperature {C}
    0.0,                     !- Daily Dry-Bulb Temperature Range {deltaC}
    DefaultMultipliers,      !- Dry-Bulb Temperature Range Modifier Type
    ,                        !- Dry-Bulb Temperature Range Modifier Day Schedule Name
    Wetbulb,                 !- Humidity Condition Type
    -23.7,                   !- Wetbulb or DewPoint at Maximum Dry-Bulb {C}
    ,                        !- Humidity Condition Day Schedule Name
    ,                        !- Humidity Ratio at Maximum Dry-Bulb {kgWater/kgDryAir}
    ,                        !- Enthalpy at Maximum Dry-Bulb {J/kg}
    ,                        !- Daily Wet-Bulb Temperature Range {deltaC}
    100893.0,                !- Barometric Pressure {Pa}
    3.9,                     !- Wind Speed {m/s}
    260.0,                   !- Wind Direction {deg}
    No,                      !- Rain Indicator
    No,                      !- Snow Indicator
    No,                      !- Daylight Saving Time Indicator
    ASHRAEClearSky,          !- Solar Model Indicator
    ,                        !- Beam Solar Day Schedule Name
    ,                        !- Diffuse Solar Day Schedule Name
    ,                        !- ASHRAE Clear Sky Optical Depth for Beam Irradiance (taub) {dimensionless}
    ,                        !- ASHRAE Clear Sky Optical Depth for Diffuse Irradiance (taud) {dimensionless}
    0.0;                     !- Sky Clearness

  RunPeriod,
    Run Period 1,            !- Name
    1,                       !- Begin Month
    1,                       !- Begin Day of Month
    ,                        !- Begin Year
    12,                      !- End Month
    31,                      !- End Day of Month
    ,                        !- End Year
    Sunday,                  !- Day of Week for Start Day
    No,                      !- Use Weather File Holidays and Special Days
    No,                      !- Use Weather File Daylight Saving Period
    No,                      !- Apply Weekend Holiday Rule
    Yes,                     !- Use Weather File Rain Indicators
    Yes,                     !- Use Weather File Snow Indicators
    ;                        !- Treat Weather as Actual

  Site:GroundTemperature:BuildingSurface,19.527,19.502,19.536,19.598,20.002,21.64,22.225,22.375,21.449,20.121,19.802,19.633;

  Site:WaterMainsTemperature,
    Correlation,             !- Calculation Method
    ,                        !- Temperature Schedule Name
    6.25,                    !- Annual Average Outdoor Air Temperature {C}
    30.2;                    !- Maximum Difference In Monthly Average Outdoor Air Temperatures {deltaC}

  ScheduleTypeLimits,
    Sp-Dining Sys-3 Flr-1 Sch-B HPlcmt-south ZN Thermostat Schedule Type Limits,  !- Name
    0.0,                     !- Lower Limit Value
    4.0,                     !- Upper Limit Value
    DISCRETE;                !- Numeric Type

  ScheduleTypeLimits,
    Temperature,             !- Name
    ,                        !- Lower Limit Value
    ,                        !- Upper Limit Value
    Continuous,              !- Numeric Type
    temperature;             !- Unit Type

  ScheduleTypeLimits,
    Fractional,              !- Name
    0.0,                     !- Lower Limit Value
    1.0,                     !- Upper Limit Value
    Continuous;              !- Numeric Type

  ScheduleTypeLimits,
    Sp-Kitchen Sys-3 Flr-1 Sch-B HPlcmt-north ZN Thermostat Schedule Type Limits,  !- Name
    0.0,                     !- Lower Limit Value
    4.0,                     !- Upper Limit Value
    DISCRETE;                !- Numeric Type

  ScheduleTypeLimits,
    ActivityLevel,           !- Name
    0.0,                     !- Lower Limit Value
    ,                        !- Upper Limit Value
    Continuous,              !- Numeric Type
    activitylevel;           !- Unit Type

  ScheduleTypeLimits,
    Any Number;              !- Name

  ScheduleTypeLimits,
    OnOff,                   !- Name
    0.0,                     !- Lower Limit Value
    1.0,                     !- Upper Limit Value
    Discrete,                !- Numeric Type
    availability;            !- Unit Type

  ScheduleTypeLimits,
    Temperature Schedule Type Limits,  !- Name
    0.0,                     !- Lower Limit Value
    100.0,                   !- Upper Limit Value
    Continuous,              !- Numeric Type
    temperature;             !- Unit Type

  ScheduleTypeLimits,
    Temperature Schedule Type Limits 1,  !- Name
    0.0,                     !- Lower Limit Value
    100.0,                   !- Upper Limit Value
    Continuous,              !- Numeric Type
    temperature;             !- Unit Type

  ScheduleTypeLimits,
    Velocity,                !- Name
    0.0,                     !- Lower Limit Value
    ,                        !- Upper Limit Value
    Continuous,              !- Numeric Type
    velocity;                !- Unit Type

  Schedule:Day:Interval,
    NECB-B-Thermostat Setpoint-Heating Sun|Hol Day,  !- Name
    Temperature,             !- Schedule Type Limits Name
    No,                      !- Interpolate to Timestep
    01:00,                   !- Time 1
    18.0,                    !- Value Until Time 1
    02:00,                   !- Time 2
    22.0,                    !- Value Until Time 2
    09:00,                   !- Time 3
    18.0,                    !- Value Until Time 3
    10:00,                   !- Time 4
    20.0,                    !- Value Until Time 4
    23:00,                   !- Time 5
    22.0,                    !- Value Until Time 5
    24:00,                   !- Time 6
    18.0;                    !- Value Until Time 6

  Schedule:Day:Interval,
    NECB-B-Thermostat Setpoint-Heating Default|Wkdy Day,  !- Name
    Temperature,             !- Schedule Type Limits Name
    No,                      !- Interpolate to Timestep
    02:00,                   !- Time 1
    22.0,                    !- Value Until Time 1
    08:00,                   !- Time 2
    18.0,                    !- Value Until Time 2
    09:00,                   !- Time 3
    20.0,                    !- Value Until Time 3
    24:00,                   !- Time 4
    22.0;                    !- Value Until Time 4

  Schedule:Day:Interval,
    NECB-B-Thermostat Setpoint-Heating Sat Day,  !- Name
    Temperature,             !- Schedule Type Limits Name
    No,                      !- Interpolate to Timestep
    02:00,                   !- Time 1
    22.0,                    !- Value Until Time 1
    08:00,                   !- Time 2
    18.0,                    !- Value Until Time 2
    09:00,                   !- Time 3
    20.0,                    !- Value Until Time 3
    24:00,                   !- Time 4
    22.0;                    !- Value Until Time 4

  Schedule:Day:Interval,
    NECB-B-Thermostat Setpoint-Heating Default,  !- Name
    Temperature,             !- Schedule Type Limits Name
    No,                      !- Interpolate to Timestep
    02:00,                   !- Time 1
    22.0,                    !- Value Until Time 1
    08:00,                   !- Time 2
    18.0,                    !- Value Until Time 2
    09:00,                   !- Time 3
    20.0,                    !- Value Until Time 3
    24:00,                   !- Time 4
    22.0;                    !- Value Until Time 4

  Schedule:Day:Interval,
    NECB-B-Thermostat Setpoint-Cooling Sun|Hol Day,  !- Name
    Temperature,             !- Schedule Type Limits Name
    No,                      !- Interpolate to Timestep
    09:00,                   !- Time 1
    35.0,                    !- Value Until Time 1
    23:00,                   !- Time 2
    24.0,                    !- Value Until Time 2
    24:00,                   !- Time 3
    35.0;                    !- Value Until Time 3

  Schedule:Day:Interval,
    NECB-B-Thermostat Setpoint-Cooling Default|Wkdy Day,  !- Name
    Temperature,             !- Schedule Type Limits Name
    No,                      !- Interpolate to Timestep
    01:00,                   !- Time 1
    24.0,                    !- Value Until Time 1
    08:00,                   !- Time 2
    35.0,                    !- Value Until Time 2
    24:00,                   !- Time 3
    24.0;                    !- Value Until Time 3

  Schedule:Day:Interval,
    NECB-B-Thermostat Setpoint-Cooling Sat Day,  !- Name
    Temperature,             !- Schedule Type Limits Name
    No,                      !- Interpolate to Timestep
    01:00,                   !- Time 1
    24.0,                    !- Value Until Time 1
    08:00,                   !- Time 2
    35.0,                    !- Value Until Time 2
    24:00,                   !- Time 3
    24.0;                    !- Value Until Time 3

  Schedule:Day:Interval,
    NECB-B-Thermostat Setpoint-Cooling Default,  !- Name
    Temperature,             !- Schedule Type Limits Name
    No,                      !- Interpolate to Timestep
    01:00,                   !- Time 1
    24.0,                    !- Value Until Time 1
    08:00,                   !- Time 2
    35.0,                    !- Value Until Time 2
    24:00,                   !- Time 3
    24.0;                    !- Value Until Time 3

  Schedule:Day:Interval,
    Sp-Dining Sys-3 Flr-1 Sch-B HPlcmt-south ZN NECB System 3 PSZ Occ Sch Sunday,  !- Name
    Fractional,              !- Schedule Type Limits Name
    No,                      !- Interpolate to Timestep
    01:00,                   !- Time 1
    0.0,                     !- Value Until Time 1
    02:00,                   !- Time 2
    1.0,                     !- Value Until Time 2
    11:00,                   !- Time 3
    0.0,                     !- Value Until Time 3
    23:00,                   !- Time 4
    1.0,                     !- Value Until Time 4
    24:00,                   !- Time 5
    0.0;                     !- Value Until Time 5

  Schedule:Day:Interval,
    Sp-Dining Sys-3 Flr-1 Sch-B HPlcmt-south ZN NECB System 3 PSZ Occ Sch Monday,  !- Name
    Fractional,              !- Schedule Type Limits Name
    No,                      !- Interpolate to Timestep
    01:00,                   !- Time 1
    1.0,                     !- Value Until Time 1
    10:00,                   !- Time 2
    0.0,                     !- Value Until Time 2
    24:00,                   !- Time 3
    1.0;                     !- Value Until Time 3

  Schedule:Day:Interval,
    Sp-Dining Sys-3 Flr-1 Sch-B HPlcmt-south ZN NECB System 3 PSZ Occ Sch Tuesday,  !- Name
    Fractional,              !- Schedule Type Limits Name
    No,                      !- Interpolate to Timestep
    01:00,                   !- Time 1
    1.0,                     !- Value Until Time 1
    10:00,                   !- Time 2
    0.0,                     !- Value Until Time 2
    24:00,                   !- Time 3
    1.0;                     !- Value Until Time 3

  Schedule:Day:Interval,
    Sp-Dining Sys-3 Flr-1 Sch-B HPlcmt-south ZN NECB System 3 PSZ Occ Sch Wednesday,  !- Name
    Fractional,              !- Schedule Type Limits Name
    No,                      !- Interpolate to Timestep
    01:00,                   !- Time 1
    1.0,                     !- Value Until Time 1
    10:00,                   !- Time 2
    0.0,                     !- Value Until Time 2
    24:00,                   !- Time 3
    1.0;                     !- Value Until Time 3

  Schedule:Day:Interval,
    Sp-Dining Sys-3 Flr-1 Sch-B HPlcmt-south ZN NECB System 3 PSZ Occ Sch Thursday,  !- Name
    Fractional,              !- Schedule Type Limits Name
    No,                      !- Interpolate to Timestep
    01:00,                   !- Time 1
    1.0,                     !- Value Until Time 1
    10:00,                   !- Time 2
    0.0,                     !- Value Until Time 2
    24:00,                   !- Time 3
    1.0;                     !- Value Until Time 3

  Schedule:Day:Interval,
    Sp-Dining Sys-3 Flr-1 Sch-B HPlcmt-south ZN NECB System 3 PSZ Occ Sch Friday,  !- Name
    Fractional,              !- Schedule Type Limits Name
    No,                      !- Interpolate to Timestep
    01:00,                   !- Time 1
    1.0,                     !- Value Until Time 1
    10:00,                   !- Time 2
    0.0,                     !- Value Until Time 2
    24:00,                   !- Time 3
    1.0;                     !- Value Until Time 3

  Schedule:Day:Interval,
    Sp-Dining Sys-3 Flr-1 Sch-B HPlcmt-south ZN NECB System 3 PSZ Occ Sch Saturday,  !- Name
    Fractional,              !- Schedule Type Limits Name
    No,                      !- Interpolate to Timestep
    02:00,                   !- Time 1
    1.0,                     !- Value Until Time 1
    10:00,                   !- Time 2
    0.0,                     !- Value Until Time 2
    24:00,                   !- Time 3
    1.0;                     !- Value Until Time 3

  Schedule:Day:Interval,
    Sp-Dining Sys-3 Flr-1 Sch-B HPlcmt-south ZN NECB System 3 PSZ Occ Sch Default,  !- Name
    Fractional,              !- Schedule Type Limits Name
    No,                      !- Interpolate to Timestep
    24:00,                   !- Time 1
    1.0;                     !- Value Until Time 1

  Schedule:Day:Interval,
    Sp-Dining Sys-3 Flr-1 Sch-B HPlcmt-south ZN NECB System 3 PSZ Occ Sch Summer Design Day,  !- Name
    Fractional,              !- Schedule Type Limits Name
    No,                      !- Interpolate to Timestep
    24:00,                   !- Time 1
    1.0;                     !- Value Until Time 1

  Schedule:Day:Interval,
    Sp-Dining Sys-3 Flr-1 Sch-B HPlcmt-south ZN NECB System 3 PSZ Occ Sch Winter Design Day,  !- Name
    Fractional,              !- Schedule Type Limits Name
    No,                      !- Interpolate to Timestep
    24:00,                   !- Time 1
    1.0;                     !- Value Until Time 1

  Schedule:Day:Interval,
    Air Velocity Schedule Default,  !- Name
    Velocity,                !- Schedule Type Limits Name
    No,                      !- Interpolate to Timestep
    24:00,                   !- Time 1
    0.2;                     !- Value Until Time 1

  Schedule:Day:Interval,
    Always On Default,       !- Name
    Fractional,              !- Schedule Type Limits Name
    No,                      !- Interpolate to Timestep
    24:00,                   !- Time 1
    1.0;                     !- Value Until Time 1

  Schedule:Day:Interval,
    Clothing Schedule Default Winter Clothes,  !- Name
    Any Number,              !- Schedule Type Limits Name
    No,                      !- Interpolate to Timestep
    24:00,                   !- Time 1
    1.0;                     !- Value Until Time 1

  Schedule:Day:Interval,
    Clothing Schedule Summer Clothes,  !- Name
    Any Number,              !- Schedule Type Limits Name
    No,                      !- Interpolate to Timestep
    24:00,                   !- Time 1
    0.5;                     !- Value Until Time 1

  Schedule:Day:Interval,
    Economizer Max OA Fraction 100 pct Default,  !- Name
    ,                        !- Schedule Type Limits Name
    No,                      !- Interpolate to Timestep
    24:00,                   !- Time 1
    1.0;                     !- Value Until Time 1

  Schedule:Day:Interval,
    NECB-Activity Default,   !- Name
    ActivityLevel,           !- Schedule Type Limits Name
    No,                      !- Interpolate to Timestep
    24:00,                   !- Time 1
    130.0;                   !- Value Until Time 1

  Schedule:Day:Interval,
    NECB-Activity Summer Design Day,  !- Name
    ActivityLevel,           !- Schedule Type Limits Name
    No,                      !- Interpolate to Timestep
    24:00,                   !- Time 1
    130.0;                   !- Value Until Time 1

  Schedule:Day:Interval,
    NECB-Activity Winter Design Day,  !- Name
    ActivityLevel,           !- Schedule Type Limits Name
    No,                      !- Interpolate to Timestep
    24:00,                   !- Time 1
    130.0;                   !- Value Until Time 1

  Schedule:Day:Interval,
    NECB-B-Electric-Equipment Default,  !- Name
    Fractional,              !- Schedule Type Limits Name
    No,                      !- Interpolate to Timestep
    01:00,                   !- Time 1
    0.9,                     !- Value Until Time 1
    02:00,                   !- Time 2
    0.5,                     !- Value Until Time 2
    09:00,                   !- Time 3
    0.1,                     !- Value Until Time 3
    10:00,                   !- Time 4
    0.5,                     !- Value Until Time 4
    11:00,                   !- Time 5
    0.7,                     !- Value Until Time 5
    24:00,                   !- Time 6
    0.9;                     !- Value Until Time 6

  Schedule:Day:Interval,
    NECB-B-Electric-Equipment Default|Wkdy Day,  !- Name
    Fractional,              !- Schedule Type Limits Name
    No,                      !- Interpolate to Timestep
    01:00,                   !- Time 1
    0.9,                     !- Value Until Time 1
    02:00,                   !- Time 2
    0.5,                     !- Value Until Time 2
    09:00,                   !- Time 3
    0.1,                     !- Value Until Time 3
    10:00,                   !- Time 4
    0.5,                     !- Value Until Time 4
    11:00,                   !- Time 5
    0.7,                     !- Value Until Time 5
    24:00,                   !- Time 6
    0.9;                     !- Value Until Time 6

  Schedule:Day:Interval,
    NECB-B-Electric-Equipment Sat Day,  !- Name
    Fractional,              !- Schedule Type Limits Name
    No,                      !- Interpolate to Timestep
    01:00,                   !- Time 1
    0.9,                     !- Value Until Time 1
    02:00,                   !- Time 2
    0.5,                     !- Value Until Time 2
    09:00,                   !- Time 3
    0.1,                     !- Value Until Time 3
    10:00,                   !- Time 4
    0.5,                     !- Value Until Time 4
    11:00,                   !- Time 5
    0.7,                     !- Value Until Time 5
    24:00,                   !- Time 6
    0.9;                     !- Value Until Time 6

  Schedule:Day:Interval,
    NECB-B-Electric-Equipment Sun|Hol Day,  !- Name
    Fractional,              !- Schedule Type Limits Name
    No,                      !- Interpolate to Timestep
    02:00,                   !- Time 1
    0.5,                     !- Value Until Time 1
    10:00,                   !- Time 2
    0.1,                     !- Value Until Time 2
    11:00,                   !- Time 3
    0.5,                     !- Value Until Time 3
    23:00,                   !- Time 4
    0.9,                     !- Value Until Time 4
    24:00,                   !- Time 5
    0.5;                     !- Value Until Time 5

  Schedule:Day:Interval,
    NECB-B-Lighting Default, !- Name
    Fractional,              !- Schedule Type Limits Name
    No,                      !- Interpolate to Timestep
    01:00,                   !- Time 1
    0.9,                     !- Value Until Time 1
    02:00,                   !- Time 2
    0.5,                     !- Value Until Time 2
    09:00,                   !- Time 3
    0.1,                     !- Value Until Time 3
    10:00,                   !- Time 4
    0.5,                     !- Value Until Time 4
    11:00,                   !- Time 5
    0.7,                     !- Value Until Time 5
    24:00,                   !- Time 6
    0.9;                     !- Value Until Time 6

  Schedule:Day:Interval,
    NECB-B-Lighting Default|Wkdy Day,  !- Name
    Fractional,              !- Schedule Type Limits Name
    No,                      !- Interpolate to Timestep
    01:00,                   !- Time 1
    0.9,                     !- Value Until Time 1
    02:00,                   !- Time 2
    0.5,                     !- Value Until Time 2
    09:00,                   !- Time 3
    0.1,                     !- Value Until Time 3
    10:00,                   !- Time 4
    0.5,                     !- Value Until Time 4
    11:00,                   !- Time 5
    0.7,                     !- Value Until Time 5
    24:00,                   !- Time 6
    0.9;                     !- Value Until Time 6

  Schedule:Day:Interval,
    NECB-B-Lighting Sat Day, !- Name
    Fractional,              !- Schedule Type Limits Name
    No,                      !- Interpolate to Timestep
    01:00,                   !- Time 1
    0.9,                     !- Value Until Time 1
    02:00,                   !- Time 2
    0.5,                     !- Value Until Time 2
    09:00,                   !- Time 3
    0.1,                     !- Value Until Time 3
    10:00,                   !- Time 4
    0.5,                     !- Value Until Time 4
    11:00,                   !- Time 5
    0.7,                     !- Value Until Time 5
    24:00,                   !- Time 6
    0.9;                     !- Value Until Time 6

  Schedule:Day:Interval,
    NECB-B-Lighting Sun|Hol Day,  !- Name
    Fractional,              !- Schedule Type Limits Name
    No,                      !- Interpolate to Timestep
    02:00,                   !- Time 1
    0.5,                     !- Value Until Time 1
    10:00,                   !- Time 2
    0.1,                     !- Value Until Time 2
    11:00,                   !- Time 3
    0.5,                     !- Value Until Time 3
    23:00,                   !- Time 4
    0.9,                     !- Value Until Time 4
    24:00,                   !- Time 5
    0.5;                     !- Value Until Time 5

  Schedule:Day:Interval,
    NECB-B-Occupancy Default,!- Name
    Fractional,              !- Schedule Type Limits Name
    No,                      !- Interpolate to Timestep
    01:00,                   !- Time 1
    0.3,                     !- Value Until Time 1
    02:00,                   !- Time 2
    0.1,                     !- Value Until Time 2
    09:00,                   !- Time 3
    0.0,                     !- Value Until Time 3
    10:00,                   !- Time 4
    0.1,                     !- Value Until Time 4
    11:00,                   !- Time 5
    0.2,                     !- Value Until Time 5
    12:00,                   !- Time 6
    0.5,                     !- Value Until Time 6
    13:00,                   !- Time 7
    0.9,                     !- Value Until Time 7
    14:00,                   !- Time 8
    0.8,                     !- Value Until Time 8
    15:00,                   !- Time 9
    0.5,                     !- Value Until Time 9
    17:00,                   !- Time 10
    0.2,                     !- Value Until Time 10
    18:00,                   !- Time 11
    0.3,                     !- Value Until Time 11
    19:00,                   !- Time 12
    0.6,                     !- Value Until Time 12
    22:00,                   !- Time 13
    0.9,                     !- Value Until Time 13
    23:00,                   !- Time 14
    0.6,                     !- Value Until Time 14
    24:00,                   !- Time 15
    0.4;                     !- Value Until Time 15

  Schedule:Day:Interval,
    NECB-B-Occupancy Default|Wkdy Day,  !- Name
    Fractional,              !- Schedule Type Limits Name
    No,                      !- Interpolate to Timestep
    01:00,                   !- Time 1
    0.3,                     !- Value Until Time 1
    02:00,                   !- Time 2
    0.1,                     !- Value Until Time 2
    09:00,                   !- Time 3
    0.0,                     !- Value Until Time 3
    10:00,                   !- Time 4
    0.1,                     !- Value Until Time 4
    11:00,                   !- Time 5
    0.2,                     !- Value Until Time 5
    12:00,                   !- Time 6
    0.5,                     !- Value Until Time 6
    13:00,                   !- Time 7
    0.9,                     !- Value Until Time 7
    14:00,                   !- Time 8
    0.8,                     !- Value Until Time 8
    15:00,                   !- Time 9
    0.5,                     !- Value Until Time 9
    17:00,                   !- Time 10
    0.2,                     !- Value Until Time 10
    18:00,                   !- Time 11
    0.3,                     !- Value Until Time 11
    19:00,                   !- Time 12
    0.6,                     !- Value Until Time 12
    22:00,                   !- Time 13
    0.9,                     !- Value Until Time 13
    23:00,                   !- Time 14
    0.6,                     !- Value Until Time 14