!- Darwin Line endings

  Version,9.2;

  SimulationControl,
    Yes,                     !- Do Zone Sizing Calculation
    Yes,                     !- Do System Sizing Calculation
    Yes,                     !- Do Plant Sizing Calculation
    No,                      !- Run Simulation for Sizing Periods
    Yes;                     !- Run Simulation for Weather File Run Periods

  Building,
    NECB 2011-MidriseApartment-NECB HDD Method-CAN_PQ_Montreal.Intl.AP.716270_CWEC.epw created: 2017,  !- Name
    0.0,                     !- North Axis {deg}
    City,                    !- Terrain
    0.04,                    !- Loads Convergence Tolerance Value
    0.4,                     !- Temperature Convergence Tolerance Value {deltaC}
    FullExterior,            !- Solar Distribution
    25,                      !- Maximum Number of Warmup Days
    6;                       !- Minimum Number of Warmup Days

  ShadowCalculation,
    AverageOverDaysInFrequency,  !- Calculation Method
    20,                      !- Calculation Frequency
    15000;                   !- Maximum Figures in Shadow Overlap Calculations

  SurfaceConvectionAlgorithm:Inside,TARP;

  SurfaceConvectionAlgorithm:Outside,TARP;

  HeatBalanceAlgorithm,ConductionTransferFunction,200.0;

  Timestep,4;

  Site:Location,
    Montreal Int'l_PQ_CAN,   !- Name
    45.47,                   !- Latitude {deg}
    -73.75,                  !- Longitude {deg}
    -5.0,                    !- Time Zone {hr}
    36.0;                    !- Elevation {m}

  SizingPeriod:DesignDay,
    Montreal Int'l Ann Clg .4% Condns DB=>MWB,  !- Name
    7,                       !- Month
    21,                      !- Day of Month
    SummerDesignDay,         !- Day Type
    30.0,                    !- Maximum Dry-Bulb Temperature {C}
    9.3,                     !- Daily Dry-Bulb Temperature Range {deltaC}
    DefaultMultipliers,      !- Dry-Bulb Temperature Range Modifier Type
    ,                        !- Dry-Bulb Temperature Range Modifier Day Schedule Name
    Wetbulb,                 !- Humidity Condition Type
    22.1,                    !- Wetbulb or DewPoint at Maximum Dry-Bulb {C}
    ,                        !- Humidity Condition Day Schedule Name
    ,                        !- Humidity Ratio at Maximum Dry-Bulb {kgWater/kgDryAir}
    ,                        !- Enthalpy at Maximum Dry-Bulb {J/kg}
    ,                        !- Daily Wet-Bulb Temperature Range {deltaC}
    100893.0,                !- Barometric Pressure {Pa}
    4.9,                     !- Wind Speed {m/s}
    220.0,                   !- Wind Direction {deg}
    No,                      !- Rain Indicator
    No,                      !- Snow Indicator
    No,                      !- Daylight Saving Time Indicator
    ASHRAETau,               !- Solar Model Indicator
    ,                        !- Beam Solar Day Schedule Name
    ,                        !- Diffuse Solar Day Schedule Name
    0.465,                   !- ASHRAE Clear Sky Optical Depth for Beam Irradiance (taub) {dimensionless}
    1.966;                   !- ASHRAE Clear Sky Optical Depth for Diffuse Irradiance (taud) {dimensionless}

  SizingPeriod:DesignDay,
    Montreal Int'l Ann Clg .4% Condns WB=>MDB,  !- Name
    7,                       !- Month
    21,                      !- Day of Month
    SummerDesignDay,         !- Day Type
    28.1,                    !- Maximum Dry-Bulb Temperature {C}
    9.3,                     !- Daily Dry-Bulb Temperature Range {deltaC}
    DefaultMultipliers,      !- Dry-Bulb Temperature Range Modifier Type
    ,                        !- Dry-Bulb Temperature Range Modifier Day Schedule Name
    Wetbulb,                 !- Humidity Condition Type
    23.2,                    !- Wetbulb or DewPoint at Maximum Dry-Bulb {C}
    ,                        !- Humidity Condition Day Schedule Name
    ,                        !- Humidity Ratio at Maximum Dry-Bulb {kgWater/kgDryAir}
    ,                        !- Enthalpy at Maximum Dry-Bulb {J/kg}
    ,                        !- Daily Wet-Bulb Temperature Range {deltaC}
    100893.0,                !- Barometric Pressure {Pa}
    4.9,                     !- Wind Speed {m/s}
    220.0,                   !- Wind Direction {deg}
    No,                      !- Rain Indicator
    No,                      !- Snow Indicator
    No,                      !- Daylight Saving Time Indicator
    ASHRAETau,               !- Solar Model Indicator
    ,                        !- Beam Solar Day Schedule Name
    ,                        !- Diffuse Solar Day Schedule Name
    0.465,                   !- ASHRAE Clear Sky Optical Depth for Beam Irradiance (taub) {dimensionless}
    1.966;                   !- ASHRAE Clear Sky Optical Depth for Diffuse Irradiance (taud) {dimensionless}

  SizingPeriod:DesignDay,
    Montreal Int'l Ann Htg 99.6% Condns DB,  !- Name
    1,                       !- Month
    21,                      !- Day of Month
    WinterDesignDay,         !- Day Type
    -23.7,                   !- Maximum Dry-Bulb Temperature {C}
    0.0,                     !- Daily Dry-Bulb Temperature Range {deltaC}
    DefaultMultipliers,      !- Dry-Bulb Temperature Range Modifier Type
    ,                        !- Dry-Bulb Temperature Range Modifier Day Schedule Name
    Wetbulb,                 !- Humidity Condition Type
    -23.7,                   !- Wetbulb or DewPoint at Maximum Dry-Bulb {C}
    ,                        !- Humidity Condition Day Schedule Name
    ,                        !- Humidity Ratio at Maximum Dry-Bulb {kgWater/kgDryAir}
    ,                        !- Enthalpy at Maximum Dry-Bulb {J/kg}
    ,                        !- Daily Wet-Bulb Temperature Range {deltaC}
    100893.0,                !- Barometric Pressure {Pa}
    3.9,                     !- Wind Speed {m/s}
    260.0,                   !- Wind Direction {deg}
    No,                      !- Rain Indicator
    No,                      !- Snow Indicator
    No,                      !- Daylight Saving Time Indicator
    ASHRAEClearSky,          !- Solar Model Indicator
    ,                        !- Beam Solar Day Schedule Name
    ,                        !- Diffuse Solar Day Schedule Name
    ,                        !- ASHRAE Clear Sky Optical Depth for Beam Irradiance (taub) {dimensionless}
    ,                        !- ASHRAE Clear Sky Optical Depth for Diffuse Irradiance (taud) {dimensionless}
    0.0;                     !- Sky Clearness

  RunPeriod,
    Run Period 1,            !- Name
    1,                       !- Begin Month
    1,                       !- Begin Day of Month
    ,                        !- Begin Year
    12,                      !- End Month
    31,                      !- End Day of Month
    ,                        !- End Year
    Sunday,                  !- Day of Week for Start Day
    No,                      !- Use Weather File Holidays and Special Days
    No,                      !- Use Weather File Daylight Saving Period
    Yes,                     !- Apply Weekend Holiday Rule
    Yes,                     !- Use Weather File Rain Indicators
    Yes,                     !- Use Weather File Snow Indicators
    ;                        !- Treat Weather as Actual

  Site:GroundTemperature:BuildingSurface,19.527,19.502,19.536,19.598,20.002,21.64,22.225,22.375,21.449,20.121,19.802,19.633;

  Site:WaterMainsTemperature,
    Correlation,             !- Calculation Method
    ,                        !- Temperature Schedule Name
    6.25,                    !- Annual Average Outdoor Air Temperature {C}
    30.2;                    !- Maximum Difference In Monthly Average Outdoor Air Temperatures {deltaC}

  ScheduleTypeLimits,
    Sp-G Corridor Sys-1 Flr-3 Sch-G HPlcmt-east ZN Thermostat Schedule Type Limits,  !- Name
    0.0,                     !- Lower Limit Value
    4.0,                     !- Upper Limit Value
    DISCRETE;                !- Numeric Type

  ScheduleTypeLimits,
    Temperature,             !- Name
    ,                        !- Lower Limit Value
    ,                        !- Upper Limit Value
    Continuous,              !- Numeric Type
    temperature;             !- Unit Type

  ScheduleTypeLimits,
    OnOff,                   !- Name
    0.0,                     !- Lower Limit Value
    1.0,                     !- Upper Limit Value
    Discrete,                !- Numeric Type
    availability;            !- Unit Type

  ScheduleTypeLimits,
    Fractional,              !- Name
    0.0,                     !- Lower Limit Value
    1.0,                     !- Upper Limit Value
    Continuous;              !- Numeric Type

  ScheduleTypeLimits,
    Sp-G N1 Apartment Sys-1 Flr-3 Sch-G HPlcmt-north ZN Thermostat Schedule Type Limits,  !- Name
    0.0,                     !- Lower Limit Value
    4.0,                     !- Upper Limit Value
    DISCRETE;                !- Numeric Type

  ScheduleTypeLimits,
    Sp-G N2 Apartment Sys-1 Flr-3 Sch-G HPlcmt-north ZN Thermostat Schedule Type Limits,  !- Name
    0.0,                     !- Lower Limit Value
    4.0,                     !- Upper Limit Value
    DISCRETE;                !- Numeric Type

  ScheduleTypeLimits,
    Sp-G NE Apartment Sys-1 Flr-3 Sch-G HPlcmt-north ZN Thermostat Schedule Type Limits,  !- Name
    0.0,                     !- Lower Limit Value
    4.0,                     !- Upper Limit Value
    DISCRETE;                !- Numeric Type

  ScheduleTypeLimits,
    Sp-G NW Apartment Sys-1 Flr-3 Sch-G HPlcmt-north ZN Thermostat Schedule Type Limits,  !- Name
    0.0,                     !- Lower Limit Value
    4.0,                     !- Upper Limit Value
    DISCRETE;                !- Numeric Type

  ScheduleTypeLimits,
    Sp-G S1 Apartment Sys-1 Flr-3 Sch-G HPlcmt-south ZN Thermostat Schedule Type Limits,  !- Name
    0.0,                     !- Lower Limit Value
    4.0,                     !- Upper Limit Value
    DISCRETE;                !- Numeric Type

  ScheduleTypeLimits,
    Sp-G S2 Apartment Sys-1 Flr-3 Sch-G HPlcmt-south ZN Thermostat Schedule Type Limits,  !- Name
    0.0,                     !- Lower Limit Value
    4.0,                     !- Upper Limit Value
    DISCRETE;                !- Numeric Type

  ScheduleTypeLimits,
    Sp-G SW Apartment Sys-1 Flr-3 Sch-G HPlcmt-south ZN Thermostat Schedule Type Limits,  !- Name
    0.0,                     !- Lower Limit Value
    4.0,                     !- Upper Limit Value
    DISCRETE;                !- Numeric Type

  ScheduleTypeLimits,
    Sp-M Corridor Sys-1 Flr-1 Sch-G HPlcmt-east ZN Thermostat Schedule Type Limits,  !- Name
    0.0,                     !- Lower Limit Value
    4.0,                     !- Upper Limit Value
    DISCRETE;                !- Numeric Type

  ScheduleTypeLimits,
    Sp-M N1 Apartment Sys-1 Flr-1 Sch-G HPlcmt-north ZN Thermostat Schedule Type Limits,  !- Name
    0.0,                     !- Lower Limit Value
    4.0,                     !- Upper Limit Value
    DISCRETE;                !- Numeric Type

  ScheduleTypeLimits,
    Sp-M N2 Apartment Sys-1 Flr-1 Sch-G HPlcmt-north ZN Thermostat Schedule Type Limits,  !- Name
    0.0,                     !- Lower Limit Value
    4.0,                     !- Upper Limit Value
    DISCRETE;                !- Numeric Type

  ScheduleTypeLimits,
    Sp-M NE Apartment Sys-1 Flr-1 Sch-G HPlcmt-north ZN Thermostat Schedule Type Limits,  !- Name
    0.0,                     !- Lower Limit Value
    4.0,                     !- Upper Limit Value
    DISCRETE;                !- Numeric Type

  ScheduleTypeLimits,
    Sp-M NW Apartment Sys-1 Flr-1 Sch-G HPlcmt-north ZN Thermostat Schedule Type Limits,  !- Name
    0.0,                     !- Lower Limit Value
    4.0,                     !- Upper Limit Value
    DISCRETE;                !- Numeric Type

  ScheduleTypeLimits,
    Sp-M S1 Apartment Sys-1 Flr-1 Sch-G HPlcmt-south ZN Thermostat Schedule Type Limits,  !- Name
    0.0,                     !- Lower Limit Value
    4.0,                     !- Upper Limit Value
    DISCRETE;                !- Numeric Type

  ScheduleTypeLimits,
    Sp-M S2 Apartment Sys-1 Flr-1 Sch-G HPlcmt-south ZN Thermostat Schedule Type Limits,  !- Name
    0.0,                     !- Lower Limit Value
    4.0,                     !- Upper Limit Value
    DISCRETE;                !- Numeric Type

  ScheduleTypeLimits,
    Sp-M SE Apartment Sys-1 Flr-1 Sch-G HPlcmt-south ZN Thermostat Schedule Type Limits,  !- Name
    0.0,                     !- Lower Limit Value
    4.0,                     !- Upper Limit Value
    DISCRETE;                !- Numeric Type

  ScheduleTypeLimits,
    Sp-M SW Apartment Sys-1 Flr-1 Sch-G HPlcmt-south ZN Thermostat Schedule Type Limits,  !- Name
    0.0,                     !- Lower Limit Value
    4.0,                     !- Upper Limit Value
    DISCRETE;                !- Numeric Type

  ScheduleTypeLimits,
    Sp-Office Sys-3 Flr-3 Sch-C HPlcmt-south ZN Thermostat Schedule Type Limits,  !- Name
    0.0,                     !- Lower Limit Value
    4.0,                     !- Upper Limit Value
    DISCRETE;                !- Numeric Type

  ScheduleTypeLimits,
    Sp-T Corridor Sys-1 Flr-2 Sch-G HPlcmt-west ZN Thermostat Schedule Type Limits,  !- Name
    0.0,                     !- Lower Limit Value
    4.0,                     !- Upper Limit Value
    DISCRETE;                !- Numeric Type

  ScheduleTypeLimits,
    Sp-T N1 Apartment Sys-1 Flr-2 Sch-G HPlcmt-north ZN Thermostat Schedule Type Limits,  !- Name
    0.0,                     !- Lower Limit Value
    4.0,                     !- Upper Limit Value
    DISCRETE;                !- Numeric Type

  ScheduleTypeLimits,
    Sp-T N2 Apartment Sys-1 Flr-2 Sch-G HPlcmt-north ZN Thermostat Schedule Type Limits,  !- Name
    0.0,                     !- Lower Limit Value
    4.0,                     !- Upper Limit Value
    DISCRETE;                !- Numeric Type

  ScheduleTypeLimits,
    Sp-T NE Apartment Sys-1 Flr-2 Sch-G HPlcmt-north ZN Thermostat Schedule Type Limits,  !- Name
    0.0,                     !- Lower Limit Value
    4.0,                     !- Upper Limit Value
    DISCRETE;                !- Numeric Type

  ScheduleTypeLimits,
    Sp-T NW Apartment Sys-1 Flr-2 Sch-G HPlcmt-north ZN Thermostat Schedule Type Limits,  !- Name
    0.0,                     !- Lower Limit Value
    4.0,                     !- Upper Limit Value
    DISCRETE;                !- Numeric Type

  ScheduleTypeLimits,
    Sp-T S1 Apartment Sys-1 Flr-2 Sch-G HPlcmt-south ZN Thermostat Schedule Type Limits,  !- Name
    0.0,                     !- Lower Limit Value
    4.0,                     !- Upper Limit Value
    DISCRETE;                !- Numeric Type

  ScheduleTypeLimits,
    Sp-T S2 Apartment Sys-1 Flr-2 Sch-G HPlcmt-south ZN Thermostat Schedule Type Limits,  !- Name
    0.0,                     !- Lower Limit Value
    4.0,                     !- Upper Limit Value
    DISCRETE;                !- Numeric Type

  ScheduleTypeLimits,
    Sp-T SE Apartment Sys-1 Flr-2 Sch-G HPlcmt-south ZN Thermostat Schedule Type Limits,  !- Name
    0.0,                     !- Lower Limit Value
    4.0,                     !- Upper Limit Value
    DISCRETE;                !- Numeric Type

  ScheduleTypeLimits,
    Sp-T SW Apartment Sys-1 Flr-2 Sch-G HPlcmt-south ZN Thermostat Schedule Type Limits,  !- Name
    0.0,                     !- Lower Limit Value
    4.0,                     !- Upper Limit Value
    DISCRETE;                !- Numeric Type

  ScheduleTypeLimits,
    ActivityLevel,           !- Name
    0.0,                     !- Lower Limit Value
    ,                        !- Upper Limit Value
    Continuous,              !- Numeric Type
    activitylevel;           !- Unit Type

  ScheduleTypeLimits,
    Any Number;              !- Name

  ScheduleTypeLimits,
    ON_OFF,                  !- Name
    0.0,                     !- Lower Limit Value
    1.0,                     !- Upper Limit Value
    DISCRETE,                !- Numeric Type
    dimensionless;           !- Unit Type

  ScheduleTypeLimits,
    Temperature Schedule Type Limits,  !- Name
    0.0,                     !- Lower Limit Value
    100.0,                   !- Upper Limit Value
    Continuous,              !- Numeric Type
    temperature;             !- Unit Type

  ScheduleTypeLimits,
    Temperature Schedule Type Limits 1,  !- Name
    0.0,                     !- Lower Limit Value
    100.0,                   !- Upper Limit Value
    Continuous,              !- Numeric Type
    temperature;             !- Unit Type

  ScheduleTypeLimits,
    Velocity,                !- Name
    0.0,                     !- Lower Limit Value
    ,                        !- Upper Limit Value
    Continuous,              !- Numeric Type
    velocity;                !- Unit Type

  Schedule:Day:Interval,
    NECB-G-Thermostat Setpoint-Heating Sun|Hol Day,  !- Name
    Temperature,             !- Schedule Type Limits Name
    No,                      !- Interpolate to Timestep
    01:00,                   !- Time 1
    22.0,                    !- Value Until Time 1
    07:00,                   !- Time 2
    18.0,                    !- Value Until Time 2
    08:00,                   !- Time 3
    20.0,                    !- Value Until Time 3
    24:00,                   !- Time 4
    22.0;                    !- Value Until Time 4

  Schedule:Day:Interval,
    NECB-G-Thermostat Setpoint-Heating Default|Wkdy Day,  !- Name
    Temperature,             !- Schedule Type Limits Name
    No,                      !- Interpolate to Timestep
    01:00,                   !- Time 1
    22.0,                    !- Value Until Time 1
    07:00,                   !- Time 2
    18.0,                    !- Value Until Time 2
    08:00,                   !- Time 3
    20.0,                    !- Value Until Time 3
    24:00,                   !- Time 4
    22.0;                    !- Value Until Time 4

  Schedule:Day:Interval,
    NECB-G-Thermostat Setpoint-Heating Sat Day,  !- Name
    Temperature,             !- Schedule Type Limits Name
    No,                      !- Interpolate to Timestep
    01:00,                   !- Time 1
    22.0,                    !- Value Until Time 1
    07:00,                   !- Time 2
    18.0,                    !- Value Until Time 2
    08:00,                   !- Time 3
    20.0,                    !- Value Until Time 3
    24:00,                   !- Time 4
    22.0;                    !- Value Until Time 4

  Schedule:Day:Interval,
    NECB-G-Thermostat Setpoint-Heating Default,  !- Name
    Temperature,             !- Schedule Type Limits Name
    No,                      !- Interpolate to Timestep
    01:00,                   !- Time 1
    22.0,                    !- Value Until Time 1
    07:00,                   !- Time 2
    18.0,                    !- Value Until Time 2
    08:00,                   !- Time 3
    20.0,                    !- Value Until Time 3
    24:00,                   !- Time 4
    22.0;                    !- Value Until Time 4

  Schedule:Day:Interval,
    NECB-G-Thermostat Setpoint-Cooling Sun|Hol Day,  !- Name
    Temperature,             !- Schedule Type Limits Name
    No,                      !- Interpolate to Timestep
    24:00,                   !- Time 1
    24.0;                    !- Value Until Time 1

  Schedule:Day:Interval,
    NECB-G-Thermostat Setpoint-Cooling Default|Wkdy Day,  !- Name
    Temperature,             !- Schedule Type Limits Name
    No,                      !- Interpolate to Timestep
    24:00,                   !- Time 1
    24.0;                    !- Value Until Time 1

  Schedule:Day:Interval,
    NECB-G-Thermostat Setpoint-Cooling Sat Day,  !- Name
    Temperature,             !- Schedule Type Limits Name
    No,                      !- Interpolate to Timestep
    24:00,                   !- Time 1
    24.0;                    !- Value Until Time 1

  Schedule:Day:Interval,
    NECB-G-Thermostat Setpoint-Cooling Default,  !- Name
    Temperature,             !- Schedule Type Limits Name
    No,                      !- Interpolate to Timestep
    24:00,                   !- Time 1
    24.0;                    !- Value Until Time 1

  Schedule:Day:Interval,
    sunON_OFF_ALWAYS_OFF 1,  !- Name
    OnOff,                   !- Schedule Type Limits Name
    No,                      !- Interpolate to Timestep
    01:00,                   !- Time 1
    0.0,                     !- Value Until Time 1
    02:00,                   !- Time 2
    0.0,                     !- Value Until Time 2
    03:00,                   !- Time 3
    0.0,                     !- Value Until Time 3
    04:00,                   !- Time 4
    0.0,                     !- Value Until Time 4
    05:00,                   !- Time 5
    0.0,                     !- Value Until Time 5
    06:00,                   !- Time 6
    0.0,                     !- Value Until Time 6
    07:00,                   !- Time 7
    0.0,                     !- Value Until Time 7
    08:00,                   !- Time 8
    0.0,                     !- Value Until Time 8
    09:00,                   !- Time 9
    0.0,                     !- Value Until Time 9
    10:00,                   !- Time 10
    0.0,                     !- Value Until Time 10
    11:00,                   !- Time 11
    0.0,                     !- Value Until Time 11
    12:00,                   !- Time 12
    0.0,                     !- Value Until Time 12
    13:00,                   !- Time 13
    0.0,                     !- Value Until Time 13
    14:00,                   !- Time 14
    0.0,                     !- Value Until Time 14
    15:00,                   !- Time 15
    0.0,                     !- Value Until Time 15
    16:00,                   !- Time 16
    0.0,                     !- Value Until Time 16
    17:00,                   !- Time 17
    0.0,                     !- Value Until Time 17
    18:00,                   !- Time 18
    0.0,                     !- Value Until Time 18
    19:00,                   !- Time 19
    0.0,                     !- Value Until Time 19
    20:00,                   !- Time 20
    0.0,                     !- Value Until Time 20
    21:00,                   !- Time 21
    0.0,                     !- Value Until Time 21
    22:00,                   !- Time 22
    0.0,                     !- Value Until Time 22
    23:00,                   !- Time 23
    0.0,                     !- Value Until Time 23
    24:00,                   !- Time 24
    0.0;                     !- Value Until Time 24

  Schedule:Day:Interval,
    wkdON_OFF_ALWAYS_OFF 1,  !- Name
    OnOff,                   !- Schedule Type Limits Name
    No,                      !- Interpolate to Timestep
    01:00,                   !- Time 1
    0.0,                     !- Value Until Time 1
    02:00,                   !- Time 2
    0.0,                     !- Value Until Time 2
    03:00,                   !- Time 3
    0.0,                     !- Value Until Time 3
    04:00,                   !- Time 4
    0.0,                     !- Value Until Time 4
    05:00,                   !- Time 5
    0.0,                     !- Value Until Time 5
    06:00,                   !- Time 6
    0.0,                     !- Value Until Time 6
    07:00,                   !- Time 7
    0.0,                     !- Value Until Time 7
    08:00,                   !- Time 8
    0.0,                     !- Value Until Time 8
    09:00,                   !- Time 9
    0.0,                     !- Value Until Time 9
    10:00,                   !- Time 10
    0.0,                     !- Value Until Time 10
    11:00,                   !- Time 11
    0.0,                     !- Value Until Time 11
    12:00,                   !- Time 12
    0.0,                     !- Value Until Time 12
    13:00,                   !- Time 13
    0.0,                     !- Value Until Time 13
    14:00,                   !- Time 14
    0.0,                     !- Value Until Time 14
    15:00,                   !- Time 15
    0.0,                     !- Value Until Time 15
    16:00,                   !- Time 16
    0.0,                     !- Value Until Time 16
    17:00,                   !- Time 17
    0.0,                     !- Value Until Time 17
    18:00,                   !- Time 18
    0.0,                     !- Value Until Time 18
    19:00,                   !- Time 19
    0.0,                     !- Value Until Time 19
    20:00,                   !- Time 20
    0.0,                     !- Value Until Time 20
    21:00,                   !- Time 21
    0.0,                     !- Value Until Time 21
    22:00,                   !- Time 22
    0.0,                     !- Value Until Time 22
    23:00,                   !- Time 23
    0.0,                     !- Value Until Time 23
    24:00,                   !- Time 24
    0.0;                     !- Value Until Time 24

  Schedule:Day:Interval,
    satON_OFF_ALWAYS_OFF 1,  !- Name
    OnOff,                   !- Schedule Type Limits Name
    No,                      !- Interpolate to Timestep
    01:00,                   !- Time 1
    0.0,                     !- Value Until Time 1
    02:00,                   !- Time 2
    0.0,                     !- Value Until Time 2
    03:00,                   !- Time 3
    0.0,                     !- Value Until Time 3
    04:00,                   !- Time 4
    0.0,                     !- Value Until Time 4
    05:00,                   !- Time 5
    0.0,                     !- Value Until Time 5
    06:00,                   !- Time 6
    0.0,                     !- Value Until Time 6
    07:00,                   !- Time 7
    0.0,                     !- Value Until Time 7
    08:00,                   !- Time 8
    0.0,                     !- Value Until Time 8
    09:00,                   !- Time 9
    0.0,                     !- Value Until Time 9
    10:00,                   !- Time 10
    0.0,                     !- Value Until Time 10
    11:00,                   !- Time 11
    0.0,                     !- Value Until Time 11
    12:00,                   !- Time 12
    0.0,                     !- Value Until Time 12
    13:00,                   !- Time 13
    0.0,                     !- Value Until Time 13
    14:00,                   !- Time 14
    0.0,                     !- Value Until Time 14
    15:00,                   !- Time 15
    0.0,                     !- Value Until Time 15
    16:00,                   !- Time 16
    0.0,                     !- Value Until Time 16
    17:00,                   !- Time 17
    0.0,                     !- Value Until Time 17
    18:00,                   !- Time 18
    0.0,                     !- Value Until Time 18
    19:00,                   !- Time 19
    0.0,                     !- Value Until Time 19
    20:00,                   !- Time 20
    0.0,                     !- Value Until Time 20
    21:00,                   !- Time 21
    0.0,                     !- Value Until Time 21
    22:00,                   !- Time 22
    0.0,                     !- Value Until Time 22
    23:00,                   !- Time 23
    0.0,                     !- Value Until Time 23
    24:00,                   !- Time 24
    0.0;                     !- Value Until Time 24

  Schedule:Day:Interval,
    Schedule Day 3,          !- Name
    OnOff,                   !- Schedule Type Limits Name
    No,                      !- Interpolate to Timestep
    01:00,                   !- Time 1
    0.0,                     !- Value Until Time 1
    02:00,                   !- Time 2
    0.0,                     !- Value Until Time 2
    03:00,                   !- Time 3
    0.0,                     !- Value Until Time 3
    04:00,                   !- Time 4
    0.0,                     !- Value Until Time 4
    05:00,                   !- Time 5
    0.0,                     !- Value Until Time 5
    06:00,                   !- Time 6
    0.0,                     !- Value Until Time 6
    07:00,                   !- Time 7
    0.0,                     !- Value Until Time 7
    08:00,                   !- Time 8
    0.0,                     !- Value Until Time 8
    09:00,                   !- Time 9
    0.0,                     !- Value Until Time 9
    10:00,                   !- Time 10
    0.0,                     !- Value Until Time 10
    11:00,                   !- Time 11
    0.0,                     !- Value Until Time 11
    12:00,                   !- Time 12
    0.0,                     !- Value Until Time 12
    13:00,                   !- Time 13
    0.0,                     !- Value Until Time 13
    14:00,                   !- Time 14
    0.0,                     !- Value Until Time 14
    15:00,                   !- Time 15
    0.0,                     !- Value Until Time 15
    16:00,                   !- Time 16
    0.0,                     !- Value Until Time 16
    17:00,                   !- Time 17
    0.0,                     !- Value Until Time 17
    18:00,                   !- Time 18
    0.0,                     !- Value Until Time 18
    19:00,                   !- Time 19
    0.0,                     !- Value Until Time 19
    20:00,                   !- Time 20
    0.0,                     !- Value Until Time 20
    21:00,                   !- Time 21
    0.0,                     !- Value Until Time 21
    22:00,                   !- Time 22
    0.0,                     !- Value Until Time 22
    23:00,                   !- Time 23
    0.0,                     !- Value Until Time 23
    24:00,                   !- Time 24
    0.0;                     !- Value Until Time 24

  Schedule:Day:Interval,
    Make-up air unit Occ Sch Sunday,  !- Name
    Fractional,              !- Schedule Type Limits Name
    No,                      !- Interpolate to Timestep
    24:00,                   !- Time 1