!- Darwin Line endings

  Version,9.2;

  SimulationControl,
    Yes,                     !- Do Zone Sizing Calculation
    Yes,                     !- Do System Sizing Calculation
    Yes,                     !- Do Plant Sizing Calculation
    No,                      !- Run Simulation for Sizing Periods
    Yes;                     !- Run Simulation for Weather File Run Periods

  Building,
    NECB 2011-Hospital-NECB HDD Method-CAN_PQ_Montreal.Intl.AP.716270_CWEC.epw created: 2017-06-30 1,  !- Name
    ,                        !- North Axis {deg}
    ,                        !- Terrain
    ,                        !- Loads Convergence Tolerance Value
    ,                        !- Temperature Convergence Tolerance Value {deltaC}
    ,                        !- Solar Distribution
    ,                        !- Maximum Number of Warmup Days
    ;                        !- Minimum Number of Warmup Days

  ShadowCalculation,
    AverageOverDaysInFrequency,  !- Calculation Method
    20,                      !- Calculation Frequency
    15000;                   !- Maximum Figures in Shadow Overlap Calculations

  SurfaceConvectionAlgorithm:Inside,TARP;

  SurfaceConvectionAlgorithm:Outside,TARP;

  HeatBalanceAlgorithm,ConductionTransferFunction,200.0;

  Timestep,6;

  Site:Location,
    Montreal Int'l_PQ_CAN,   !- Name
    45.47,                   !- Latitude {deg}
    -73.75,                  !- Longitude {deg}
    -5.0,                    !- Time Zone {hr}
    36.0;                    !- Elevation {m}

  SizingPeriod:DesignDay,
    Montreal Int'l Ann Clg .4% Condns DB=>MWB,  !- Name
    7,                       !- Month
    21,                      !- Day of Month
    SummerDesignDay,         !- Day Type
    30.0,                    !- Maximum Dry-Bulb Temperature {C}
    9.3,                     !- Daily Dry-Bulb Temperature Range {deltaC}
    DefaultMultipliers,      !- Dry-Bulb Temperature Range Modifier Type
    ,                        !- Dry-Bulb Temperature Range Modifier Day Schedule Name
    Wetbulb,                 !- Humidity Condition Type
    22.1,                    !- Wetbulb or DewPoint at Maximum Dry-Bulb {C}
    ,                        !- Humidity Condition Day Schedule Name
    ,                        !- Humidity Ratio at Maximum Dry-Bulb {kgWater/kgDryAir}
    ,                        !- Enthalpy at Maximum Dry-Bulb {J/kg}
    ,                        !- Daily Wet-Bulb Temperature Range {deltaC}
    100893.0,                !- Barometric Pressure {Pa}
    4.9,                     !- Wind Speed {m/s}
    220.0,                   !- Wind Direction {deg}
    No,                      !- Rain Indicator
    No,                      !- Snow Indicator
    No,                      !- Daylight Saving Time Indicator
    ASHRAETau,               !- Solar Model Indicator
    ,                        !- Beam Solar Day Schedule Name
    ,                        !- Diffuse Solar Day Schedule Name
    0.465,                   !- ASHRAE Clear Sky Optical Depth for Beam Irradiance (taub) {dimensionless}
    1.966;                   !- ASHRAE Clear Sky Optical Depth for Diffuse Irradiance (taud) {dimensionless}

  SizingPeriod:DesignDay,
    Montreal Int'l Ann Clg .4% Condns WB=>MDB,  !- Name
    7,                       !- Month
    21,                      !- Day of Month
    SummerDesignDay,         !- Day Type
    28.1,                    !- Maximum Dry-Bulb Temperature {C}
    9.3,                     !- Daily Dry-Bulb Temperature Range {deltaC}
    DefaultMultipliers,      !- Dry-Bulb Temperature Range Modifier Type
    ,                        !- Dry-Bulb Temperature Range Modifier Day Schedule Name
    Wetbulb,                 !- Humidity Condition Type
    23.2,                    !- Wetbulb or DewPoint at Maximum Dry-Bulb {C}
    ,                        !- Humidity Condition Day Schedule Name
    ,                        !- Humidity Ratio at Maximum Dry-Bulb {kgWater/kgDryAir}
    ,                        !- Enthalpy at Maximum Dry-Bulb {J/kg}
    ,                        !- Daily Wet-Bulb Temperature Range {deltaC}
    100893.0,                !- Barometric Pressure {Pa}
    4.9,                     !- Wind Speed {m/s}
    220.0,                   !- Wind Direction {deg}
    No,                      !- Rain Indicator
    No,                      !- Snow Indicator
    No,                      !- Daylight Saving Time Indicator
    ASHRAETau,               !- Solar Model Indicator
    ,                        !- Beam Solar Day Schedule Name
    ,                        !- Diffuse Solar Day Schedule Name
    0.465,                   !- ASHRAE Clear Sky Optical Depth for Beam Irradiance (taub) {dimensionless}
    1.966;                   !- ASHRAE Clear Sky Optical Depth for Diffuse Irradiance (taud) {dimensionless}

  SizingPeriod:DesignDay,
    Montreal Int'l Ann Htg 99.6% Condns DB,  !- Name
    1,                       !- Month
    21,                      !- Day of Month
    WinterDesignDay,         !- Day Type
    -23.7,                   !- Maximum Dry-Bulb Temperature {C}
    0.0,                     !- Daily Dry-Bulb Temperature Range {deltaC}
    DefaultMultipliers,      !- Dry-Bulb Temperature Range Modifier Type
    ,                        !- Dry-Bulb Temperature Range Modifier Day Schedule Name
    Wetbulb,                 !- Humidity Condition Type
    -23.7,                   !- Wetbulb or DewPoint at Maximum Dry-Bulb {C}
    ,                        !- Humidity Condition Day Schedule Name
    ,                        !- Humidity Ratio at Maximum Dry-Bulb {kgWater/kgDryAir}
    ,                        !- Enthalpy at Maximum Dry-Bulb {J/kg}
    ,                        !- Daily Wet-Bulb Temperature Range {deltaC}
    100893.0,                !- Barometric Pressure {Pa}
    3.9,                     !- Wind Speed {m/s}
    260.0,                   !- Wind Direction {deg}
    No,                      !- Rain Indicator
    No,                      !- Snow Indicator
    No,                      !- Daylight Saving Time Indicator
    ASHRAEClearSky,          !- Solar Model Indicator
    ,                        !- Beam Solar Day Schedule Name
    ,                        !- Diffuse Solar Day Schedule Name
    ,                        !- ASHRAE Clear Sky Optical Depth for Beam Irradiance (taub) {dimensionless}
    ,                        !- ASHRAE Clear Sky Optical Depth for Diffuse Irradiance (taud) {dimensionless}
    0.0;                     !- Sky Clearness

  RunPeriod,
    Run Period 1,            !- Name
    1,                       !- Begin Month
    1,                       !- Begin Day of Month
    ,                        !- Begin Year
    12,                      !- End Month
    31,                      !- End Day of Month
    ,                        !- End Year
    Sunday,                  !- Day of Week for Start Day
    No,                      !- Use Weather File Holidays and Special Days
    No,                      !- Use Weather File Daylight Saving Period
    No,                      !- Apply Weekend Holiday Rule
    Yes,                     !- Use Weather File Rain Indicators
    Yes,                     !- Use Weather File Snow Indicators
    ;                        !- Treat Weather as Actual

  Site:GroundTemperature:BuildingSurface,19.527,19.502,19.536,19.598,20.002,21.64,22.225,22.375,21.449,20.121,19.802,19.633;

  Site:WaterMainsTemperature,
    Correlation,             !- Calculation Method
    ,                        !- Temperature Schedule Name
    6.25,                    !- Annual Average Outdoor Air Temperature {C}
    30.2;                    !- Maximum Difference In Monthly Average Outdoor Air Temperatures {deltaC}

  ScheduleTypeLimits,
    Sp-Basement Sys-3 Flr-7 Sch-A HPlcmt-north ZN Thermostat Schedule Type Limits,  !- Name
    0.0,                     !- Lower Limit Value
    4.0,                     !- Upper Limit Value
    DISCRETE;                !- Numeric Type

  ScheduleTypeLimits,
    Temperature 37,          !- Name
    ,                        !- Lower Limit Value
    ,                        !- Upper Limit Value
    Continuous,              !- Numeric Type
    temperature;             !- Unit Type

  ScheduleTypeLimits,
    Fractional,              !- Name
    0.0,                     !- Lower Limit Value
    1.0,                     !- Upper Limit Value
    Continuous;              !- Numeric Type

  ScheduleTypeLimits,
    Sp-Corridor_Flr_1 Sys-6 Flr-1 Sch-B HPlcmt-north ZN Thermostat Schedule Type Limits,  !- Name
    0.0,                     !- Lower Limit Value
    4.0,                     !- Upper Limit Value
    DISCRETE;                !- Numeric Type

  ScheduleTypeLimits,
    Sp-Corridor_Flr_2 Sys-3 Flr-4 Sch-B HPlcmt-north ZN Thermostat Schedule Type Limits,  !- Name
    0.0,                     !- Lower Limit Value
    4.0,                     !- Upper Limit Value
    DISCRETE;                !- Numeric Type

  ScheduleTypeLimits,
    Sp-Corridor_Flr_5 Sys-3 Flr-6 Sch-B HPlcmt-north ZN Thermostat Schedule Type Limits,  !- Name
    0.0,                     !- Lower Limit Value
    4.0,                     !- Upper Limit Value
    DISCRETE;                !- Numeric Type

  ScheduleTypeLimits,
    Sp-Corridor_NW_Flr_3 Sys-3 Flr-2 Sch-B HPlcmt-north ZN Thermostat Schedule Type Limits,  !- Name
    0.0,                     !- Lower Limit Value
    4.0,                     !- Upper Limit Value
    DISCRETE;                !- Numeric Type

  ScheduleTypeLimits,
    Sp-Corridor_NW_Flr_4 Sys-3 Flr-3 Sch-B HPlcmt-north ZN Thermostat Schedule Type Limits,  !- Name
    0.0,                     !- Lower Limit Value
    4.0,                     !- Upper Limit Value
    DISCRETE;                !- Numeric Type

  ScheduleTypeLimits,
    Sp-Corridor_SE_Flr_3 Sys-3 Flr-2 Sch-B HPlcmt-south ZN Thermostat Schedule Type Limits,  !- Name
    0.0,                     !- Lower Limit Value
    4.0,                     !- Upper Limit Value
    DISCRETE;                !- Numeric Type

  ScheduleTypeLimits,
    Sp-Corridor_SE_Flr_4 Sys-3 Flr-3 Sch-B HPlcmt-south ZN Thermostat Schedule Type Limits,  !- Name
    0.0,                     !- Lower Limit Value
    4.0,                     !- Upper Limit Value
    DISCRETE;                !- Numeric Type

  ScheduleTypeLimits,
    Sp-Dining_Flr_5 Sys-3 Flr-6 Sch-B HPlcmt-south ZN Thermostat Schedule Type Limits,  !- Name
    0.0,                     !- Lower Limit Value
    4.0,                     !- Upper Limit Value
    DISCRETE;                !- Numeric Type

  ScheduleTypeLimits,
    Sp-ER_Exam1_Mult4_Flr_1 Sys-3 Flr-1 Sch-H HPlcmt-south ZN Thermostat Schedule Type Limits,  !- Name
    0.0,                     !- Lower Limit Value
    4.0,                     !- Upper Limit Value
    DISCRETE;                !- Numeric Type

  ScheduleTypeLimits,
    Sp-ER_Exam3_Mult4_Flr_1 Sys-3 Flr-1 Sch-H HPlcmt-east ZN Thermostat Schedule Type Limits,  !- Name
    0.0,                     !- Lower Limit Value
    4.0,                     !- Upper Limit Value
    DISCRETE;                !- Numeric Type

  ScheduleTypeLimits,
    Sp-ER_NurseStn_Lobby_Flr_1 Sys-3 Flr-1 Sch-H HPlcmt-east ZN Thermostat Schedule Type Limits,  !- Name
    0.0,                     !- Lower Limit Value
    4.0,                     !- Upper Limit Value
    DISCRETE;                !- Numeric Type

  ScheduleTypeLimits,
    Sp-ER_Trauma1_Flr_1 Sys-3 Flr-1 Sch-H HPlcmt-south ZN Thermostat Schedule Type Limits,  !- Name
    0.0,                     !- Lower Limit Value
    4.0,                     !- Upper Limit Value
    DISCRETE;                !- Numeric Type

  ScheduleTypeLimits,
    Sp-ER_Trauma2_Flr_1 Sys-3 Flr-1 Sch-H HPlcmt-north ZN Thermostat Schedule Type Limits,  !- Name
    0.0,                     !- Lower Limit Value
    4.0,                     !- Upper Limit Value
    DISCRETE;                !- Numeric Type

  ScheduleTypeLimits,
    Sp-ER_Triage_Mult4_Flr_1 Sys-3 Flr-1 Sch-H HPlcmt-north ZN Thermostat Schedule Type Limits,  !- Name
    0.0,                     !- Lower Limit Value
    4.0,                     !- Upper Limit Value
    DISCRETE;                !- Numeric Type

  ScheduleTypeLimits,
    Sp-ICU_Flr_2 Sys-3 Flr-4 Sch-H HPlcmt-south ZN Thermostat Schedule Type Limits,  !- Name
    0.0,                     !- Lower Limit Value
    4.0,                     !- Upper Limit Value
    DISCRETE;                !- Numeric Type

  ScheduleTypeLimits,
    Sp-ICU_NurseStn_Lobby_Flr_2 Sys-3 Flr-4 Sch-H HPlcmt-core ZN Thermostat Schedule Type Limits,  !- Name
    0.0,                     !- Lower Limit Value
    4.0,                     !- Upper Limit Value
    DISCRETE;                !- Numeric Type

  ScheduleTypeLimits,
    Sp-IC_PatRoom1_Mult5_Flr_2 Sys-3 Flr-4 Sch-H HPlcmt-north ZN Thermostat Schedule Type Limits,  !- Name
    0.0,                     !- Lower Limit Value
    4.0,                     !- Upper Limit Value
    DISCRETE;                !- Numeric Type

  ScheduleTypeLimits,
    Sp-IC_PatRoom2_Flr_2 Sys-3 Flr-4 Sch-H HPlcmt-north ZN Thermostat Schedule Type Limits,  !- Name
    0.0,                     !- Lower Limit Value
    4.0,                     !- Upper Limit Value
    DISCRETE;                !- Numeric Type

  ScheduleTypeLimits,
    Sp-IC_PatRoom3_Mult6_Flr_2 Sys-3 Flr-4 Sch-H HPlcmt-west ZN Thermostat Schedule Type Limits,  !- Name
    0.0,                     !- Lower Limit Value
    4.0,                     !- Upper Limit Value
    DISCRETE;                !- Numeric Type

  ScheduleTypeLimits,
    Sp-Kitchen_Flr_5 Sys-3 Flr-6 Sch-B HPlcmt-north ZN Thermostat Schedule Type Limits,  !- Name
    0.0,                     !- Lower Limit Value
    4.0,                     !- Upper Limit Value
    DISCRETE;                !- Numeric Type

  ScheduleTypeLimits,
    Sp-Lab_Flr_3 Sys-3 Flr-2 Sch-A HPlcmt-core ZN Thermostat Schedule Type Limits,  !- Name
    0.0,                     !- Lower Limit Value
    4.0,                     !- Upper Limit Value
    DISCRETE;                !- Numeric Type

  ScheduleTypeLimits,
    Sp-Lab_Flr_4 Sys-3 Flr-3 Sch-A HPlcmt-core ZN Thermostat Schedule Type Limits,  !- Name
    0.0,                     !- Lower Limit Value
    4.0,                     !- Upper Limit Value
    DISCRETE;                !- Numeric Type

  ScheduleTypeLimits,
    Sp-Lobby_Records_Flr_1 Sys-6 Flr-1 Sch-A HPlcmt-west ZN Thermostat Schedule Type Limits,  !- Name
    0.0,                     !- Lower Limit Value
    4.0,                     !- Upper Limit Value
    DISCRETE;                !- Numeric Type

  ScheduleTypeLimits,
    Sp-NurseStn_Lobby_Flr_3 Sys-3 Flr-2 Sch-H HPlcmt-core ZN Thermostat Schedule Type Limits,  !- Name
    0.0,                     !- Lower Limit Value
    4.0,                     !- Upper Limit Value
    DISCRETE;                !- Numeric Type

  ScheduleTypeLimits,
    Sp-NurseStn_Lobby_Flr_4 Sys-3 Flr-3 Sch-H HPlcmt-core ZN Thermostat Schedule Type Limits,  !- Name
    0.0,                     !- Lower Limit Value
    4.0,                     !- Upper Limit Value
    DISCRETE;                !- Numeric Type

  ScheduleTypeLimits,
    Sp-NurseStn_Lobby_Flr_5 Sys-3 Flr-6 Sch-H HPlcmt-south ZN Thermostat Schedule Type Limits,  !- Name
    0.0,                     !- Lower Limit Value
    4.0,                     !- Upper Limit Value
    DISCRETE;                !- Numeric Type

  ScheduleTypeLimits,
    Sp-Office1_Flr_5 Sys-6 Flr-6 Sch-A HPlcmt-south ZN Thermostat Schedule Type Limits,  !- Name
    0.0,                     !- Lower Limit Value
    4.0,                     !- Upper Limit Value
    DISCRETE;                !- Numeric Type

  ScheduleTypeLimits,
    Sp-Office1_Mult4_Flr_1 Sys-6 Flr-1 Sch-A HPlcmt-south ZN Thermostat Schedule Type Limits,  !- Name
    0.0,                     !- Lower Limit Value
    4.0,                     !- Upper Limit Value
    DISCRETE;                !- Numeric Type

  ScheduleTypeLimits,
    Sp-Office2_Mult5_Flr_5 Sys-6 Flr-6 Sch-A HPlcmt-west ZN Thermostat Schedule Type Limits,  !- Name
    0.0,                     !- Lower Limit Value
    4.0,                     !- Upper Limit Value
    DISCRETE;                !- Numeric Type

  ScheduleTypeLimits,
    Sp-Office3_Flr_5 Sys-6 Flr-6 Sch-A HPlcmt-north ZN Thermostat Schedule Type Limits,  !- Name
    0.0,                     !- Lower Limit Value
    4.0,                     !- Upper Limit Value
    DISCRETE;                !- Numeric Type

  ScheduleTypeLimits,
    Sp-Office4_Mult6_Flr_5 Sys-6 Flr-6 Sch-A HPlcmt-north ZN Thermostat Schedule Type Limits,  !- Name
    0.0,                     !- Lower Limit Value
    4.0,                     !- Upper Limit Value
    DISCRETE;                !- Numeric Type

  ScheduleTypeLimits,
    Sp-OR1_Flr_2 Sys-3 Flr-4 Sch-H HPlcmt-north ZN Thermostat Schedule Type Limits,  !- Name
    0.0,                     !- Lower Limit Value
    4.0,                     !- Upper Limit Value
    DISCRETE;                !- Numeric Type

  ScheduleTypeLimits,
    Sp-OR2_Mult5_Flr_2 Sys-3 Flr-4 Sch-H HPlcmt-east ZN Thermostat Schedule Type Limits,  !- Name
    0.0,                     !- Lower Limit Value
    4.0,                     !- Upper Limit Value
    DISCRETE;                !- Numeric Type

  ScheduleTypeLimits,
    Sp-OR3_Flr_2 Sys-3 Flr-4 Sch-H HPlcmt-north ZN Thermostat Schedule Type Limits,  !- Name
    0.0,                     !- Lower Limit Value
    4.0,                     !- Upper Limit Value
    DISCRETE;                !- Numeric Type

  ScheduleTypeLimits,
    Sp-OR4_Flr_2 Sys-3 Flr-4 Sch-H HPlcmt-core ZN Thermostat Schedule Type Limits,  !- Name
    0.0,                     !- Lower Limit Value
    4.0,                     !- Upper Limit Value
    DISCRETE;                !- Numeric Type

  ScheduleTypeLimits,
    Sp-OR_NurseStn_Lobby_Flr_2 Sys-3 Flr-4 Sch-H HPlcmt-south ZN Thermostat Schedule Type Limits,  !- Name
    0.0,                     !- Lower Limit Value
    4.0,                     !- Upper Limit Value
    DISCRETE;                !- Numeric Type

  ScheduleTypeLimits,
    Sp-PatRoom1_Mult10_Flr_3 Sys-3 Flr-2 Sch-H HPlcmt-south ZN Thermostat Schedule Type Limits,  !- Name
    0.0,                     !- Lower Limit Value
    4.0,                     !- Upper Limit Value
    DISCRETE;                !- Numeric Type

  ScheduleTypeLimits,
    Sp-PatRoom1_Mult10_Flr_4 Sys-3 Flr-3 Sch-H HPlcmt-south ZN Thermostat Schedule Type Limits,  !- Name
    0.0,                     !- Lower Limit Value
    4.0,                     !- Upper Limit Value
    DISCRETE;                !- Numeric Type

  ScheduleTypeLimits,
    Sp-PatRoom2_Flr_3 Sys-3 Flr-2 Sch-H HPlcmt-south ZN Thermostat Schedule Type Limits,  !- Name
    0.0,                     !- Lower Limit Value
    4.0,                     !- Upper Limit Value
    DISCRETE;                !- Numeric Type

  ScheduleTypeLimits,
    Sp-PatRoom2_Flr_4 Sys-3 Flr-3 Sch-H HPlcmt-south ZN Thermostat Schedule Type Limits,  !- Name
    0.0,                     !- Lower Limit Value
    4.0,                     !- Upper Limit Value
    DISCRETE;                !- Numeric Type

  ScheduleTypeLimits,
    Sp-PatRoom3_Mult10_Flr_3 Sys-3 Flr-2 Sch-H HPlcmt-east ZN Thermostat Schedule Type Limits,  !- Name
    0.0,                     !- Lower Limit Value
    4.0,                     !- Upper Limit Value
    DISCRETE;                !- Numeric Type

  ScheduleTypeLimits,
    Sp-PatRoom3_Mult10_Flr_4 Sys-3 Flr-3 Sch-H HPlcmt-east ZN Thermostat Schedule Type Limits,  !- Name
    0.0,                     !- Lower Limit Value
    4.0,                     !- Upper Limit Value
    DISCRETE;                !- Numeric Type

  ScheduleTypeLimits,
    Sp-PatRoom4_Flr_3 Sys-3 Flr-2 Sch-H HPlcmt-north ZN Thermostat Schedule Type Limits,  !- Name
    0.0,                     !- Lower Limit Value
    4.0,                     !- Upper Limit Value
    DISCRETE;                !- Numeric Type

  ScheduleTypeLimits,
    Sp-PatRoom4_Flr_4 Sys-3 Flr-3 Sch-H HPlcmt-north ZN Thermostat Schedule Type Limits,  !- Name
    0.0,                     !- Lower Limit Value
    4.0,                     !- Upper Limit Value
    DISCRETE;                !- Numeric Type

  ScheduleTypeLimits,
    Sp-PatRoom5_Mult10_Flr_3 Sys-3 Flr-2 Sch-H HPlcmt-north ZN Thermostat Schedule Type Limits,  !- Name
    0.0,                     !- Lower Limit Value
    4.0,                     !- Upper Limit Value
    DISCRETE;                !- Numeric Type

  ScheduleTypeLimits,
    Sp-PatRoom5_Mult10_Flr_4 Sys-3 Flr-3 Sch-H HPlcmt-north ZN Thermostat Schedule Type Limits,  !- Name
    0.0,                     !- Lower Limit Value
    4.0,                     !- Upper Limit Value
    DISCRETE;                !- Numeric Type

  ScheduleTypeLimits,
    Sp-PatRoom6_Flr_3 Sys-3 Flr-2 Sch-H HPlcmt-south ZN Thermostat Schedule Type Limits,  !- Name
    0.0,                     !- Lower Limit Value
    4.0,                     !- Upper Limit Value
    DISCRETE;                !- Numeric Type

  ScheduleTypeLimits,
    Sp-PatRoom6_Flr_4 Sys-3 Flr-3 Sch-H HPlcmt-south ZN Thermostat Schedule Type Limits,  !- Name
    0.0,                     !- Lower Limit Value
    4.0,                     !- Upper Limit Value
    DISCRETE;                !- Numeric Type

  ScheduleTypeLimits,
    Sp-PatRoom7_Mult10_Flr_3 Sys-3 Flr-2 Sch-H HPlcmt-west ZN Thermostat Schedule Type Limits,  !- Name
    0.0,                     !- Lower Limit Value
    4.0,                     !- Upper Limit Value
    DISCRETE;                !- Numeric Type

  ScheduleTypeLimits,
    Sp-PatRoom7_Mult10_Flr_4 Sys-3 Flr-3 Sch-H HPlcmt-west ZN Thermostat Schedule Type Limits,  !- Name
    0.0,                     !- Lower Limit Value
    4.0,                     !- Upper Limit Value
    DISCRETE;                !- Numeric Type

  ScheduleTypeLimits,
    Sp-PatRoom8_Flr_3 Sys-3 Flr-2 Sch-H HPlcmt-north ZN Thermostat Schedule Type Limits,  !- Name
    0.0,                     !- Lower Limit Value
    4.0,                     !- Upper Limit Value
    DISCRETE;                !- Numeric Type

  ScheduleTypeLimits,
    Sp-PatRoom8_Flr_4 Sys-3 Flr-3 Sch-H HPlcmt-north ZN Thermostat Schedule Type Limits,  !- Name
    0.0,                     !- Lower Limit Value
    4.0,                     !- Upper Limit Value
    DISCRETE;                !- Numeric Type

  ScheduleTypeLimits,
    Sp-PhysTherapy_Flr_3 Sys-3 Flr-2 Sch-C HPlcmt-core ZN Thermostat Schedule Type Limits,  !- Name
    0.0,                     !- Lower Limit Value
    4.0,                     !- Upper Limit Value
    DISCRETE;                !- Numeric Type

  ScheduleTypeLimits,
    Sp-Radiology_Flr_4 Sys-3 Flr-3 Sch-H HPlcmt-core ZN Thermostat Schedule Type Limits,  !- Name
    0.0,                     !- Lower Limit Value
    4.0,                     !- Upper Limit Value
    DISCRETE;                !- Numeric Type

  ScheduleTypeLimits,
    ActivityLevel,           !- Name
    0.0,                     !- Lower Limit Value
    ,                        !- Upper Limit Value
    Continuous,              !- Numeric Type
    activitylevel;           !- Unit Type

  ScheduleTypeLimits,
    ActivityLevel 12,        !- Name
    0.0,                     !- Lower Limit Value
    ,                        !- Upper Limit Value
    Continuous,              !- Numeric Type
    activitylevel;           !- Unit Type

  ScheduleTypeLimits,
    ActivityLevel 13,        !- Name
    0.0,                     !- Lower Limit Value
    ,                        !- Upper Limit Value
    Continuous,              !- Numeric Type
    activitylevel;           !- Unit Type

  ScheduleTypeLimits,
    ActivityLevel 5,         !- Name
    0.0,                     !- Lower Limit Value
    ,                        !- Upper Limit Value
    Continuous,              !- Numeric Type
    activitylevel;           !- Unit Type

  ScheduleTypeLimits,
    Any Number;              !- Name

  ScheduleTypeLimits,
    Fraction,                !- Name
    0.0,                     !- Lower Limit Value
    1.0,                     !- Upper Limit Value
    CONTINUOUS;              !- Numeric Type

  ScheduleTypeLimits,
    OnOff,                   !- Name
    0.0,                     !- Lower Limit Value
    1.0,                     !- Upper Limit Value
    Discrete,                !- Numeric Type
    availability;            !- Unit Type

  ScheduleTypeLimits,
    TEMPERATURE,             !- Name
    ,                        !- Lower Limit Value
    ,                        !- Upper Limit Value
    Continuous,              !- Numeric Type
    temperature;             !- Unit Type

  ScheduleTypeLimits,
    Temperature 11,          !- Name
    ,                        !- Lower Limit Value
    ,                        !- Upper Limit Value
    Continuous,              !- Numeric Type
    temperature;             !- Unit Type

  ScheduleTypeLimits,
    Temperature 3,           !- Name
    ,                        !- Lower Limit Value
    ,                        !- Upper Limit Value
    Continuous,              !- Numeric Type
    temperature;             !- Unit Type

  ScheduleTypeLimits,
    Temperature 36,          !- Name
    ,                        !- Lower Limit Value
    ,                        !- Upper Limit Value
    Continuous,              !- Numeric Type
    temperature;             !- Unit Type

  ScheduleTypeLimits,
    TEMPERATURE 38,          !- Name
    ,                        !- Lower Limit Value
    ,                        !- Upper Limit Value
    Continuous,              !- Numeric Type
    temperature;             !- Unit Type

  ScheduleTypeLimits,
    Temperature 4,           !- Name
    ,                        !- Lower Limit Value
    ,                        !- Upper Limit Value
    Continuous,              !- Numeric Type
    temperature;             !- Unit Type

  ScheduleTypeLimits,
    Temperature 5,           !- Name
    ,                        !- Lower Limit Value
    ,                        !- Upper Limit Value
    Continuous,              !- Numeric Type
    temperature;             !- Unit Type

  ScheduleTypeLimits,
    Temperature Schedule Type Limits,  !- Name
    0.0,                     !- Lower Limit Value
    100.0,                   !- Upper Limit Value
    Continuous,              !- Numeric Type
    temperature;             !- Unit Type

  ScheduleTypeLimits,
    Temperature Schedule Type Limits 1,  !- Name
    0.0,                     !- Lower Limit Value
    100.0,                   !- Upper Limit Value
    Continuous,              !- Numeric Type
    temperature;             !- Unit Type

  ScheduleTypeLimits,
    Velocity,                !- Name
    0.0,                     !- Lower Limit Value
    ,                        !- Upper Limit Value
    Continuous,              !- Numeric Type
    velocity;                !- Unit Type

  Schedule:Day:Interval,
    NECB-A-Thermostat Setpoint-Heating Sun|Hol Day,  !- Name
    Temperature 37,          !- Schedule Type Limits Name
    No,                      !- Interpolate to Timestep
    24:00,                   !- Time 1
    18.0;                    !- Value Until Time 1

  Schedule:Day:Interval,
    NECB-A-Thermostat Setpoint-Heating Default|Wkdy Day,  !- Name
    Temperature 37,          !- Schedule Type Limits Name
    No,                      !- Interpolate to Timestep
    06:00,                   !- Time 1
    18.0,                    !- Value Until Time 1
    07:00,                   !- Time 2
    20.0,                    !- Value Until Time 2
    21:00,                   !- Time 3
    22.0,                    !- Value Until Time 3
    24:00,                   !- Time 4
    18.0;                    !- Value Until Time 4

  Schedule:Day:Interval,
    NECB-A-Thermostat Setpoint-Heating Sat Day,  !- Name
    Temperature 37,          !- Schedule Type Limits Name
    No,                      !- Interpolate to Timestep
    24:00,                   !- Time 1
    18.0;                    !- Value Until Time 1

  Schedule:Day:Interval,
    NECB-A-Thermostat Setpoint-Heating Default,  !- Name
    Temperature 37,          !- Schedule Type Limits Name
    No,                      !- Interpolate to Timestep
    06:00,                   !- Time 1
    18.0,                    !- Value Until Time 1
    07:00,                   !- Time 2
    20.0,                    !- Value Until Time 2
    21:00,                   !- Time 3
    22.0,                    !- Value Until Time 3
    24:00,                   !- Time 4
    18.0;                    !- Value Until Time 4

  Schedule:Day:Interval,
    NECB-A-Thermostat Setpoint-Cooling Sun|Hol Day,  !- Name
    Temperature 37,          !- Schedule Type Limits Name
    No,                      !- Interpolate to Timestep
    24:00,                   !- Time 1
    35.0;                    !- Value Until Time 1

  Schedule:Day:Interval,
    NECB-A-Thermostat Setpoint-Cooling Default|Wkdy Day,  !- Name
    Temperature 37,          !- Schedule Type Limits Name
    No,                      !- Interpolate to Timestep
    06:00,                   !- Time 1
    35.0,                    !- Value Until Time 1
    21:00,                   !- Time 2
    24.0,                    !- Value Until Time 2
    24:00,                   !- Time 3
    35.0;                    !- Value Until Time 3

  Schedule:Day:Interval,
    NECB-A-Thermostat Setpoint-Cooling Sat Day,  !- Name
    Temperature 37,          !- Schedule Type Limits Name
    No,                      !- Interpolate to Timestep
    24:00,                   !- Time 1
    35.0;                    !- Value Until Time 1

  Schedule:Day:Interval,
    NECB-A-Thermostat Setpoint-Cooling Default,  !- Name
    Temperature 37,          !- Schedule Type Limits Name
    No,                      !- Interpolate to Timestep
    06:00,                   !- Time 1
    35.0,                    !- Value Until Time 1