!- Darwin Line endings

  Version,9.2;

  SimulationControl,
    Yes,                     !- Do Zone Sizing Calculation
    Yes,                     !- Do System Sizing Calculation
    Yes,                     !- Do Plant Sizing Calculation
    No,                      !- Run Simulation for Sizing Periods
    Yes;                     !- Run Simulation for Weather File Run Periods

  Building,
    NECB 2011-MediumOffice-NECB HDD Method-CAN_PQ_Montreal.Intl.AP.716270_CWEC.epw created: 2017-06-,  !- Name
    0.0,                     !- North Axis {deg}
    City,                    !- Terrain
    0.04,                    !- Loads Convergence Tolerance Value
    0.2,                     !- Temperature Convergence Tolerance Value {deltaC}
    FullInteriorAndExterior, !- Solar Distribution
    25,                      !- Maximum Number of Warmup Days
    6;                       !- Minimum Number of Warmup Days

  ShadowCalculation,
    AverageOverDaysInFrequency,  !- Calculation Method
    7,                       !- Calculation Frequency
    15000;                   !- Maximum Figures in Shadow Overlap Calculations

  SurfaceConvectionAlgorithm:Inside,TARP;

  SurfaceConvectionAlgorithm:Outside,TARP;

  HeatBalanceAlgorithm,ConductionTransferFunction,200.0;

  Timestep,6;

  ConvergenceLimits,
    2,                       !- Minimum System Timestep {minutes}
    25;                      !- Maximum HVAC Iterations

  Site:Location,
    Montreal Int'l_PQ_CAN,   !- Name
    45.47,                   !- Latitude {deg}
    -73.75,                  !- Longitude {deg}
    -5.0,                    !- Time Zone {hr}
    36.0;                    !- Elevation {m}

  SizingPeriod:DesignDay,
    Montreal Int'l Ann Clg .4% Condns DB=>MWB,  !- Name
    7,                       !- Month
    21,                      !- Day of Month
    SummerDesignDay,         !- Day Type
    30.0,                    !- Maximum Dry-Bulb Temperature {C}
    9.3,                     !- Daily Dry-Bulb Temperature Range {deltaC}
    DefaultMultipliers,      !- Dry-Bulb Temperature Range Modifier Type
    ,                        !- Dry-Bulb Temperature Range Modifier Day Schedule Name
    Wetbulb,                 !- Humidity Condition Type
    22.1,                    !- Wetbulb or DewPoint at Maximum Dry-Bulb {C}
    ,                        !- Humidity Condition Day Schedule Name
    ,                        !- Humidity Ratio at Maximum Dry-Bulb {kgWater/kgDryAir}
    ,                        !- Enthalpy at Maximum Dry-Bulb {J/kg}
    ,                        !- Daily Wet-Bulb Temperature Range {deltaC}
    100893.0,                !- Barometric Pressure {Pa}
    4.9,                     !- Wind Speed {m/s}
    220.0,                   !- Wind Direction {deg}
    No,                      !- Rain Indicator
    No,                      !- Snow Indicator
    No,                      !- Daylight Saving Time Indicator
    ASHRAETau,               !- Solar Model Indicator
    ,                        !- Beam Solar Day Schedule Name
    ,                        !- Diffuse Solar Day Schedule Name
    0.465,                   !- ASHRAE Clear Sky Optical Depth for Beam Irradiance (taub) {dimensionless}
    1.966;                   !- ASHRAE Clear Sky Optical Depth for Diffuse Irradiance (taud) {dimensionless}

  SizingPeriod:DesignDay,
    Montreal Int'l Ann Clg .4% Condns WB=>MDB,  !- Name
    7,                       !- Month
    21,                      !- Day of Month
    SummerDesignDay,         !- Day Type
    28.1,                    !- Maximum Dry-Bulb Temperature {C}
    9.3,                     !- Daily Dry-Bulb Temperature Range {deltaC}
    DefaultMultipliers,      !- Dry-Bulb Temperature Range Modifier Type
    ,                        !- Dry-Bulb Temperature Range Modifier Day Schedule Name
    Wetbulb,                 !- Humidity Condition Type
    23.2,                    !- Wetbulb or DewPoint at Maximum Dry-Bulb {C}
    ,                        !- Humidity Condition Day Schedule Name
    ,                        !- Humidity Ratio at Maximum Dry-Bulb {kgWater/kgDryAir}
    ,                        !- Enthalpy at Maximum Dry-Bulb {J/kg}
    ,                        !- Daily Wet-Bulb Temperature Range {deltaC}
    100893.0,                !- Barometric Pressure {Pa}
    4.9,                     !- Wind Speed {m/s}
    220.0,                   !- Wind Direction {deg}
    No,                      !- Rain Indicator
    No,                      !- Snow Indicator
    No,                      !- Daylight Saving Time Indicator
    ASHRAETau,               !- Solar Model Indicator
    ,                        !- Beam Solar Day Schedule Name
    ,                        !- Diffuse Solar Day Schedule Name
    0.465,                   !- ASHRAE Clear Sky Optical Depth for Beam Irradiance (taub) {dimensionless}
    1.966;                   !- ASHRAE Clear Sky Optical Depth for Diffuse Irradiance (taud) {dimensionless}

  SizingPeriod:DesignDay,
    Montreal Int'l Ann Htg 99.6% Condns DB,  !- Name
    1,                       !- Month
    21,                      !- Day of Month
    WinterDesignDay,         !- Day Type
    -23.7,                   !- Maximum Dry-Bulb Temperature {C}
    0.0,                     !- Daily Dry-Bulb Temperature Range {deltaC}
    DefaultMultipliers,      !- Dry-Bulb Temperature Range Modifier Type
    ,                        !- Dry-Bulb Temperature Range Modifier Day Schedule Name
    Wetbulb,                 !- Humidity Condition Type
    -23.7,                   !- Wetbulb or DewPoint at Maximum Dry-Bulb {C}
    ,                        !- Humidity Condition Day Schedule Name
    ,                        !- Humidity Ratio at Maximum Dry-Bulb {kgWater/kgDryAir}
    ,                        !- Enthalpy at Maximum Dry-Bulb {J/kg}
    ,                        !- Daily Wet-Bulb Temperature Range {deltaC}
    100893.0,                !- Barometric Pressure {Pa}
    3.9,                     !- Wind Speed {m/s}
    260.0,                   !- Wind Direction {deg}
    No,                      !- Rain Indicator
    No,                      !- Snow Indicator
    No,                      !- Daylight Saving Time Indicator
    ASHRAEClearSky,          !- Solar Model Indicator
    ,                        !- Beam Solar Day Schedule Name
    ,                        !- Diffuse Solar Day Schedule Name
    ,                        !- ASHRAE Clear Sky Optical Depth for Beam Irradiance (taub) {dimensionless}
    ,                        !- ASHRAE Clear Sky Optical Depth for Diffuse Irradiance (taud) {dimensionless}
    0.0;                     !- Sky Clearness

  RunPeriod,
    Run Period 1,            !- Name
    1,                       !- Begin Month
    1,                       !- Begin Day of Month
    ,                        !- Begin Year
    12,                      !- End Month
    31,                      !- End Day of Month
    ,                        !- End Year
    Sunday,                  !- Day of Week for Start Day
    No,                      !- Use Weather File Holidays and Special Days
    No,                      !- Use Weather File Daylight Saving Period
    No,                      !- Apply Weekend Holiday Rule
    Yes,                     !- Use Weather File Rain Indicators
    Yes,                     !- Use Weather File Snow Indicators
    ;                        !- Treat Weather as Actual

  Site:GroundTemperature:BuildingSurface,19.527,19.502,19.536,19.598,20.002,21.64,22.225,22.375,21.449,20.121,19.802,19.633;

  Site:WaterMainsTemperature,
    Correlation,             !- Calculation Method
    ,                        !- Temperature Schedule Name
    6.25,                    !- Annual Average Outdoor Air Temperature {C}
    30.2;                    !- Maximum Difference In Monthly Average Outdoor Air Temperatures {deltaC}

  ScheduleTypeLimits,
    Sp-Core_bottom Sys-6 Flr-2 Sch-A HPlcmt-core ZN Thermostat Schedule Type Limits,  !- Name
    0.0,                     !- Lower Limit Value
    4.0,                     !- Upper Limit Value
    DISCRETE;                !- Numeric Type

  ScheduleTypeLimits,
    Temperature,             !- Name
    ,                        !- Lower Limit Value
    ,                        !- Upper Limit Value
    Continuous,              !- Numeric Type
    temperature;             !- Unit Type

  ScheduleTypeLimits,
    Fractional,              !- Name
    0.0,                     !- Lower Limit Value
    1.0,                     !- Upper Limit Value
    Continuous;              !- Numeric Type

  ScheduleTypeLimits,
    Sp-Core_mid Sys-6 Flr-3 Sch-A HPlcmt-core ZN Thermostat Schedule Type Limits,  !- Name
    0.0,                     !- Lower Limit Value
    4.0,                     !- Upper Limit Value
    DISCRETE;                !- Numeric Type

  ScheduleTypeLimits,
    Sp-Core_top Sys-6 Flr-1 Sch-A HPlcmt-core ZN Thermostat Schedule Type Limits,  !- Name
    0.0,                     !- Lower Limit Value
    4.0,                     !- Upper Limit Value
    DISCRETE;                !- Numeric Type

  ScheduleTypeLimits,
    Sp-Perimeter_bot_ZN_1 Sys-6 Flr-2 Sch-A HPlcmt-south ZN Thermostat Schedule Type Limits,  !- Name
    0.0,                     !- Lower Limit Value
    4.0,                     !- Upper Limit Value
    DISCRETE;                !- Numeric Type

  ScheduleTypeLimits,
    Sp-Perimeter_bot_ZN_2 Sys-6 Flr-2 Sch-A HPlcmt-east ZN Thermostat Schedule Type Limits,  !- Name
    0.0,                     !- Lower Limit Value
    4.0,                     !- Upper Limit Value
    DISCRETE;                !- Numeric Type

  ScheduleTypeLimits,
    Sp-Perimeter_bot_ZN_3 Sys-6 Flr-2 Sch-A HPlcmt-north ZN Thermostat Schedule Type Limits,  !- Name
    0.0,                     !- Lower Limit Value
    4.0,                     !- Upper Limit Value
    DISCRETE;                !- Numeric Type

  ScheduleTypeLimits,
    Sp-Perimeter_bot_ZN_4 Sys-6 Flr-2 Sch-A HPlcmt-west ZN Thermostat Schedule Type Limits,  !- Name
    0.0,                     !- Lower Limit Value
    4.0,                     !- Upper Limit Value
    DISCRETE;                !- Numeric Type

  ScheduleTypeLimits,
    Sp-Perimeter_mid_ZN_1 Sys-6 Flr-3 Sch-A HPlcmt-south ZN Thermostat Schedule Type Limits,  !- Name
    0.0,                     !- Lower Limit Value
    4.0,                     !- Upper Limit Value
    DISCRETE;                !- Numeric Type

  ScheduleTypeLimits,
    Sp-Perimeter_mid_ZN_2 Sys-6 Flr-3 Sch-A HPlcmt-east ZN Thermostat Schedule Type Limits,  !- Name
    0.0,                     !- Lower Limit Value
    4.0,                     !- Upper Limit Value
    DISCRETE;                !- Numeric Type

  ScheduleTypeLimits,
    Sp-Perimeter_mid_ZN_3 Sys-6 Flr-3 Sch-A HPlcmt-north ZN Thermostat Schedule Type Limits,  !- Name
    0.0,                     !- Lower Limit Value
    4.0,                     !- Upper Limit Value
    DISCRETE;                !- Numeric Type

  ScheduleTypeLimits,
    Sp-Perimeter_mid_ZN_4 Sys-6 Flr-3 Sch-A HPlcmt-west ZN Thermostat Schedule Type Limits,  !- Name
    0.0,                     !- Lower Limit Value
    4.0,                     !- Upper Limit Value
    DISCRETE;                !- Numeric Type

  ScheduleTypeLimits,
    Sp-Perimeter_top_ZN_1 Sys-6 Flr-1 Sch-A HPlcmt-south ZN Thermostat Schedule Type Limits,  !- Name
    0.0,                     !- Lower Limit Value
    4.0,                     !- Upper Limit Value
    DISCRETE;                !- Numeric Type

  ScheduleTypeLimits,
    Sp-Perimeter_top_ZN_2 Sys-6 Flr-1 Sch-A HPlcmt-east ZN Thermostat Schedule Type Limits,  !- Name
    0.0,                     !- Lower Limit Value
    4.0,                     !- Upper Limit Value
    DISCRETE;                !- Numeric Type

  ScheduleTypeLimits,
    Sp-Perimeter_top_ZN_3 Sys-6 Flr-1 Sch-A HPlcmt-north ZN Thermostat Schedule Type Limits,  !- Name
    0.0,                     !- Lower Limit Value
    4.0,                     !- Upper Limit Value
    DISCRETE;                !- Numeric Type

  ScheduleTypeLimits,
    Sp-Perimeter_top_ZN_4 Sys-6 Flr-1 Sch-A HPlcmt-west ZN Thermostat Schedule Type Limits,  !- Name
    0.0,                     !- Lower Limit Value
    4.0,                     !- Upper Limit Value
    DISCRETE;                !- Numeric Type

  ScheduleTypeLimits,
    ActivityLevel,           !- Name
    0.0,                     !- Lower Limit Value
    ,                        !- Upper Limit Value
    Continuous,              !- Numeric Type
    activitylevel;           !- Unit Type

  ScheduleTypeLimits,
    Any Number;              !- Name

  ScheduleTypeLimits,
    OnOff,                   !- Name
    0.0,                     !- Lower Limit Value
    1.0,                     !- Upper Limit Value
    Discrete,                !- Numeric Type
    availability;            !- Unit Type

  ScheduleTypeLimits,
    TEMPERATURE 1,           !- Name
    ,                        !- Lower Limit Value
    ,                        !- Upper Limit Value
    Continuous,              !- Numeric Type
    temperature;             !- Unit Type

  ScheduleTypeLimits,
    TEMPERATURE 2,           !- Name
    ,                        !- Lower Limit Value
    ,                        !- Upper Limit Value
    Continuous,              !- Numeric Type
    temperature;             !- Unit Type

  ScheduleTypeLimits,
    Temperature Schedule Type Limits,  !- Name
    0.0,                     !- Lower Limit Value
    100.0,                   !- Upper Limit Value
    Continuous,              !- Numeric Type
    temperature;             !- Unit Type

  ScheduleTypeLimits,
    Temperature Schedule Type Limits 1,  !- Name
    0.0,                     !- Lower Limit Value
    100.0,                   !- Upper Limit Value
    Continuous,              !- Numeric Type
    temperature;             !- Unit Type

  ScheduleTypeLimits,
    Velocity,                !- Name
    0.0,                     !- Lower Limit Value
    ,                        !- Upper Limit Value
    Continuous,              !- Numeric Type
    velocity;                !- Unit Type

  Schedule:Day:Interval,
    NECB-A-Thermostat Setpoint-Heating Sun|Hol Day,  !- Name
    Temperature,             !- Schedule Type Limits Name
    No,                      !- Interpolate to Timestep
    24:00,                   !- Time 1
    18.0;                    !- Value Until Time 1

  Schedule:Day:Interval,
    NECB-A-Thermostat Setpoint-Heating Default|Wkdy Day,  !- Name
    Temperature,             !- Schedule Type Limits Name
    No,                      !- Interpolate to Timestep
    06:00,                   !- Time 1
    18.0,                    !- Value Until Time 1
    07:00,                   !- Time 2
    20.0,                    !- Value Until Time 2
    21:00,                   !- Time 3
    22.0,                    !- Value Until Time 3
    24:00,                   !- Time 4
    18.0;                    !- Value Until Time 4

  Schedule:Day:Interval,
    NECB-A-Thermostat Setpoint-Heating Sat Day,  !- Name
    Temperature,             !- Schedule Type Limits Name
    No,                      !- Interpolate to Timestep
    24:00,                   !- Time 1
    18.0;                    !- Value Until Time 1

  Schedule:Day:Interval,
    NECB-A-Thermostat Setpoint-Heating Default,  !- Name
    Temperature,             !- Schedule Type Limits Name
    No,                      !- Interpolate to Timestep
    06:00,                   !- Time 1
    18.0,                    !- Value Until Time 1
    07:00,                   !- Time 2
    20.0,                    !- Value Until Time 2
    21:00,                   !- Time 3
    22.0,                    !- Value Until Time 3
    24:00,                   !- Time 4
    18.0;                    !- Value Until Time 4

  Schedule:Day:Interval,
    NECB-A-Thermostat Setpoint-Cooling Sun|Hol Day,  !- Name
    Temperature,             !- Schedule Type Limits Name
    No,                      !- Interpolate to Timestep
    24:00,                   !- Time 1
    35.0;                    !- Value Until Time 1

  Schedule:Day:Interval,
    NECB-A-Thermostat Setpoint-Cooling Default|Wkdy Day,  !- Name
    Temperature,             !- Schedule Type Limits Name
    No,                      !- Interpolate to Timestep
    06:00,                   !- Time 1
    35.0,                    !- Value Until Time 1
    21:00,                   !- Time 2
    24.0,                    !- Value Until Time 2
    24:00,                   !- Time 3
    35.0;                    !- Value Until Time 3

  Schedule:Day:Interval,
    NECB-A-Thermostat Setpoint-Cooling Sat Day,  !- Name
    Temperature,             !- Schedule Type Limits Name
    No,                      !- Interpolate to Timestep
    24:00,                   !- Time 1
    35.0;                    !- Value Until Time 1

  Schedule:Day:Interval,
    NECB-A-Thermostat Setpoint-Cooling Default,  !- Name
    Temperature,             !- Schedule Type Limits Name
    No,                      !- Interpolate to Timestep
    06:00,                   !- Time 1
    35.0,                    !- Value Until Time 1
    21:00,                   !- Time 2
    24.0,                    !- Value Until Time 2
    24:00,                   !- Time 3
    35.0;                    !- Value Until Time 3

  Schedule:Day:Interval,
    VAV with Reheat Occ Sch Sunday,  !- Name
    Fractional,              !- Schedule Type Limits Name
    No,                      !- Interpolate to Timestep
    24:00,                   !- Time 1
    0.0;                     !- Value Until Time 1

  Schedule:Day:Interval,
    VAV with Reheat Occ Sch Monday,  !- Name
    Fractional,              !- Schedule Type Limits Name
    No,                      !- Interpolate to Timestep
    08:00,                   !- Time 1
    0.0,                     !- Value Until Time 1
    19:00,                   !- Time 2
    1.0,                     !- Value Until Time 2
    24:00,                   !- Time 3
    0.0;                     !- Value Until Time 3

  Schedule:Day:Interval,
    VAV with Reheat Occ Sch Tuesday,  !- Name
    Fractional,              !- Schedule Type Limits Name
    No,                      !- Interpolate to Timestep
    08:00,                   !- Time 1
    0.0,                     !- Value Until Time 1
    19:00,                   !- Time 2
    1.0,                     !- Value Until Time 2
    24:00,                   !- Time 3
    0.0;                     !- Value Until Time 3

  Schedule:Day:Interval,
    VAV with Reheat Occ Sch Wednesday,  !- Name
    Fractional,              !- Schedule Type Limits Name
    No,                      !- Interpolate to Timestep
    08:00,                   !- Time 1
    0.0,                     !- Value Until Time 1
    19:00,                   !- Time 2
    1.0,                     !- Value Until Time 2
    24:00,                   !- Time 3
    0.0;                     !- Value Until Time 3

  Schedule:Day:Interval,
    VAV with Reheat Occ Sch Thursday,  !- Name
    Fractional,              !- Schedule Type Limits Name
    No,                      !- Interpolate to Timestep
    08:00,                   !- Time 1
    0.0,                     !- Value Until Time 1
    19:00,                   !- Time 2
    1.0,                     !- Value Until Time 2
    24:00,                   !- Time 3
    0.0;                     !- Value Until Time 3

  Schedule:Day:Interval,
    VAV with Reheat Occ Sch Friday,  !- Name
    Fractional,              !- Schedule Type Limits Name
    No,                      !- Interpolate to Timestep
    08:00,                   !- Time 1
    0.0,                     !- Value Until Time 1
    19:00,                   !- Time 2
    1.0,                     !- Value Until Time 2
    24:00,                   !- Time 3
    0.0;                     !- Value Until Time 3

  Schedule:Day:Interval,
    VAV with Reheat Occ Sch Saturday,  !- Name
    Fractional,              !- Schedule Type Limits Name
    No,                      !- Interpolate to Timestep
    24:00,                   !- Time 1
    0.0;                     !- Value Until Time 1

  Schedule:Day:Interval,
    VAV with Reheat Occ Sch Default,  !- Name
    Fractional,              !- Schedule Type Limits Name
    No,                      !- Interpolate to Timestep
    24:00,                   !- Time 1
    1.0;                     !- Value Until Time 1

  Schedule:Day:Interval,
    VAV with Reheat Occ Sch Summer Design Day,  !- Name
    Fractional,              !- Schedule Type Limits Name
    No,                      !- Interpolate to Timestep
    24:00,                   !- Time 1
    1.0;                     !- Value Until Time 1

  Schedule:Day:Interval,
    VAV with Reheat Occ Sch Winter Design Day,  !- Name
    Fractional,              !- Schedule Type Limits Name
    No,                      !- Interpolate to Timestep
    24:00,                   !- Time 1
    1.0;                     !- Value Until Time 1

  Schedule:Day:Interval,
    VAV with Reheat 1 Occ Sch Sunday,  !- Name
    Fractional,              !- Schedule Type Limits Name
    No,                      !- Interpolate to Timestep
    24:00,                   !- Time 1
    0.0;                     !- Value Until Time 1

  Schedule:Day:Interval,
    VAV with Reheat 1 Occ Sch Monday,  !- Name
    Fractional,              !- Schedule Type Limits Name
    No,                      !- Interpolate to Timestep
    08:00,                   !- Time 1
    0.0,                     !- Value Until Time 1
    19:00,                   !- Time 2
    1.0,                     !- Value Until Time 2
    24:00,                   !- Time 3
    0.0;                     !- Value Until Time 3

  Schedule:Day:Interval,
    VAV with Reheat 1 Occ Sch Tuesday,  !- Name
    Fractional,              !- Schedule Type Limits Name
    No,                      !- Interpolate to Timestep
    08:00,                   !- Time 1
    0.0,                     !- Value Until Time 1
    19:00,                   !- Time 2
    1.0,                     !- Value Until Time 2
    24:00,                   !- Time 3
    0.0;                     !- Value Until Time 3

  Schedule:Day:Interval,
    VAV with Reheat 1 Occ Sch Wednesday,  !- Name
    Fractional,              !- Schedule Type Limits Name
    No,                      !- Interpolate to Timestep
    08:00,                   !- Time 1
    0.0,                     !- Value Until Time 1
    19:00,                   !- Time 2
    1.0,                     !- Value Until Time 2
    24:00,                   !- Time 3
    0.0;                     !- Value Until Time 3

  Schedule:Day:Interval,
    VAV with Reheat 1 Occ Sch Thursday,  !- Name
    Fractional,              !- Schedule Type Limits Name
    No,                      !- Interpolate to Timestep
    08:00,                   !- Time 1
    0.0,                     !- Value Until Time 1
    19:00,                   !- Time 2
    1.0,                     !- Value Until Time 2
    24:00,                   !- Time 3
    0.0;                     !- Value Until Time 3

  Schedule:Day:Interval,
    VAV with Reheat 1 Occ Sch Friday,  !- Name
    Fractional,              !- Schedule Type Limits Name
    No,                      !- Interpolate to Timestep
    08:00,                   !- Time 1
    0.0,                     !- Value Until Time 1
    19:00,                   !- Time 2
    1.0,                     !- Value Until Time 2
    24:00,                   !- Time 3
    0.0;                     !- Value Until Time 3

  Schedule:Day:Interval,
    VAV with Reheat 1 Occ Sch Saturday,  !- Name
    Fractional,              !- Schedule Type Limits Name
    No,                      !- Interpolate to Timestep
    24:00,                   !- Time 1
    0.0;                     !- Value Until Time 1

  Schedule:Day:Interval,
    VAV with Reheat 1 Occ Sch Default,  !- Name
    Fractional,              !- Schedule Type Limits Name
    No,                      !- Interpolate to Timestep
    24:00,                   !- Time 1
    1.0;                     !- Value Until Time 1

  Schedule:Day:Interval,
    VAV with Reheat 1 Occ Sch Summer Design Day,  !- Name
    Fractional,              !- Schedule Type Limits Name
    No,                      !- Interpolate to Timestep
    24:00,                   !- Time 1
    1.0;                     !- Value Until Time 1

  Schedule:Day:Interval,
    VAV with Reheat 1 Occ Sch Winter Design Day,  !- Name
    Fractional,              !- Schedule Type Limits Name
    No,                      !- Interpolate to Timestep
    24:00,                   !- Time 1
    1.0;                     !- Value Until Time 1

  Schedule:Day:Interval,
    VAV with Reheat 2 Occ Sch Sunday,  !- Name
    Fractional,              !- Schedule Type Limits Name
    No,                      !- Interpolate to Timestep
    24:00,                   !- Time 1
    0.0;                     !- Value Until Time 1

  Schedule:Day:Interval,
    VAV with Reheat 2 Occ Sch Monday,  !- Name
    Fractional,              !- Schedule Type Limits Name
    No,                      !- Interpolate to Timestep
    08:00,                   !- Time 1
    0.0,                     !- Value Until Time 1
    19:00,                   !- Time 2
    1.0,                     !- Value Until Time 2
    24:00,                   !- Time 3
    0.0;                     !- Value Until Time 3

  Schedule:Day:Interval,
    VAV with Reheat 2 Occ Sch Tuesday,  !- Name
    Fractional,              !- Schedule Type Limits Name
    No,                      !- Interpolate to Timestep
    08:00,                   !- Time 1
    0.0,                     !- Value Until Time 1
    19:00,                   !- Time 2
    1.0,                     !- Value Until Time 2
    24:00,                   !- Time 3
    0.0;                     !- Value Until Time 3

  Schedule:Day:Interval,
    VAV with Reheat 2 Occ Sch Wednesday,  !- Name
    Fractional,              !- Schedule Type Limits Name
    No,                      !- Interpolate to Timestep
    08:00,                   !- Time 1
    0.0,                     !- Value Until Time 1
    19:00,                   !- Time 2
    1.0,                     !- Value Until Time 2
    24:00,                   !- Time 3
    0.0;                     !- Value Until Time 3

  Schedule:Day:Interval,
    VAV with Reheat 2 Occ Sch Thursday,  !- Name
    Fractional,              !- Schedule Type Limits Name
    No,                      !- Interpolate to Timestep
    08:00,                   !- Time 1
    0.0,                     !- Value Until Time 1
    19:00,                   !- Time 2
    1.0,                     !- Value Until Time 2
    24:00,                   !- Time 3
    0.0;                     !- Value Until Time 3

  Schedule:Day:Interval,
    VAV with Reheat 2 Occ Sch Friday,  !- Name
    Fractional,              !- Schedule Type Limits Name
    No,                      !- Interpolate to Timestep
    08:00,                   !- Time 1
    0.0,                     !- Value Until Time 1
    19:00,                   !- Time 2
    1.0,                     !- Value Until Time 2
    24:00,                   !- Time 3
    0.0;                     !- Value Until Time 3

  Schedule:Day:Interval,
    VAV with Reheat 2 Occ Sch Saturday,  !- Name
    Fractional,              !- Schedule Type Limits Name
    No,                      !- Interpolate to Timestep
    24:00,                   !- Time 1
    0.0;                     !- Value Until Time 1

  Schedule:Day:Interval,
    VAV with Reheat 2 Occ Sch Default,  !- Name
    Fractional,              !- Schedule Type Limits Name
    No,                      !- Interpolate to Timestep
    24:00,                   !- Time 1
    1.0;                     !- Value Until Time 1

  Schedule:Day:Interval,
    VAV with Reheat 2 Occ Sch Summer Design Day,  !- Name
    Fractional,              !- Schedule Type Limits Name
    No,                      !- Interpolate to Timestep
    24:00,                   !- Time 1
    1.0;                     !- Value Until Time 1

  Schedule:Day:Interval,
    VAV with Reheat 2 Occ Sch Winter Design Day,  !- Name
    Fractional,              !- Schedule Type Limits Name
    No,                      !- Interpolate to Timestep
    24:00,                   !- Time 1
    1.0;                     !- Value Until Time 1

  Schedule:Day:Interval,
    Air Velocity Schedule Default,  !- Name
    Velocity,                !- Schedule Type Limits Name
    No,                      !- Interpolate to Timestep
    24:00,                   !- Time 1
    0.2;                     !- Value Until Time 1

  Schedule:Day:Interval,
    Always On Default,       !- Name
    Fractional,              !- Schedule Type Limits Name
    No,                      !- Interpolate to Timestep
    24:00,                   !- Time 1
    1.0;                     !- Value Until Time 1

  Schedule:Day:Interval,
    Clothing Schedule Default Winter Clothes,  !- Name
    Any Number,              !- Schedule Type Limits Name
    No,                      !- Interpolate to Timestep
    24:00,                   !- Time 1
    1.0;                     !- Value Until Time 1

  Schedule:Day:Interval,
    Clothing Schedule Summer Clothes,  !- Name
    Any Number,              !- Schedule Type Limits Name
    No,                      !- Interpolate to Timestep
    24:00,                   !- Time 1
    0.5;                     !- Value Until Time 1

  Schedule:Day:Interval,
    Economizer Max OA Fraction 100 pct Default,  !- Name
    ,                        !- Schedule Type Limits Name
    No,                      !- Interpolate to Timestep
    24:00,                   !- Time 1
    1.0;                     !- Value Until Time 1

  Schedule:Day:Interval,
    NECB-A-Electric-Equipment Default,  !- Name
    Fractional,              !- Schedule Type Limits Name