!- Darwin Line endings

Version,
    8.9;                      !- Version Identifier

SimulationControl,
    Yes,                      !- Do Zone Sizing Calculation
    Yes,                      !- Do System Sizing Calculation
    Yes,                      !- Do Plant Sizing Calculation
    No,                       !- Run Simulation for Sizing Periods
    Yes;                      !- Run Simulation for Weather File Run Periods

Building,
    NECB 2011-SmallHotel-NECB HDD Method-CAN_PQ_Montreal.Intl.AP.716270_CWEC.epw created: 2017-06-30 16:45:23 +0000,    !- Name
    180.0,                    !- North Axis
    Suburbs,                  !- Terrain
    0.04,                     !- Loads Convergence Tolerance Value
    0.4,                      !- Temperature Convergence Tolerance Value
    FullExterior,             !- Solar Distribution
    25,                       !- Maximum Number of Warmup Days
    6;                        !- Minimum Number of Warmup Days

ShadowCalculation,
    AverageOverDaysInFrequency,    !- Calculation Method
    20,                       !- Calculation Frequency
    15000;                    !- Maximum Figures in Shadow Overlap Calculations

SurfaceConvectionAlgorithm:Inside,
    TARP;                     !- Algorithm

SurfaceConvectionAlgorithm:Outside,
    TARP;                     !- Algorithm

HeatBalanceAlgorithm,
    ConductionTransferFunction,    !- Algorithm
    200.0;                    !- Surface Temperature Upper Limit

Timestep,
    4;                        !- Number of Timesteps per Hour

Site:Location,
    Montreal Int'l_PQ_CAN,    !- Name
    45.47,                    !- Latitude
    -73.75,                   !- Longitude
    -5.0,                     !- Time Zone
    36.0;                     !- Elevation

SizingPeriod:DesignDay,
    Montreal Int'l Ann Clg .4% Condns DB=>MWB,    !- Name
    7,                        !- Month
    21,                       !- Day of Month
    SummerDesignDay,          !- Day Type
    30.0,                     !- Maximum DryBulb Temperature
    9.3,                      !- Daily DryBulb Temperature Range
    DefaultMultipliers,       !- DryBulb Temperature Range Modifier Type
    ,                         !- DryBulb Temperature Range Modifier Day Schedule Name
    Wetbulb,                  !- Humidity Condition Type
    22.1,                     !- Wetbulb or DewPoint at Maximum DryBulb
    ,                         !- Humidity Condition Day Schedule Name
    ,                         !- Humidity Ratio at Maximum DryBulb
    ,                         !- Enthalpy at Maximum DryBulb
    ,                         !- Daily WetBulb Temperature Range
    100893.0,                 !- Barometric Pressure
    4.9,                      !- Wind Speed
    220.0,                    !- Wind Direction
    No,                       !- Rain Indicator
    No,                       !- Snow Indicator
    No,                       !- Daylight Saving Time Indicator
    ASHRAETau,                !- Solar Model Indicator
    ,                         !- Beam Solar Day Schedule Name
    ,                         !- Diffuse Solar Day Schedule Name
    0.465,                    !- ASHRAE Clear Sky Optical Depth for Beam Irradiance taub
    1.966;                    !- ASHRAE Clear Sky Optical Depth for Diffuse Irradiance taud

SizingPeriod:DesignDay,
    Montreal Int'l Ann Clg .4% Condns WB=>MDB,    !- Name
    7,                        !- Month
    21,                       !- Day of Month
    SummerDesignDay,          !- Day Type
    28.1,                     !- Maximum DryBulb Temperature
    9.3,                      !- Daily DryBulb Temperature Range
    DefaultMultipliers,       !- DryBulb Temperature Range Modifier Type
    ,                         !- DryBulb Temperature Range Modifier Day Schedule Name
    Wetbulb,                  !- Humidity Condition Type
    23.2,                     !- Wetbulb or DewPoint at Maximum DryBulb
    ,                         !- Humidity Condition Day Schedule Name
    ,                         !- Humidity Ratio at Maximum DryBulb
    ,                         !- Enthalpy at Maximum DryBulb
    ,                         !- Daily WetBulb Temperature Range
    100893.0,                 !- Barometric Pressure
    4.9,                      !- Wind Speed
    220.0,                    !- Wind Direction
    No,                       !- Rain Indicator
    No,                       !- Snow Indicator
    No,                       !- Daylight Saving Time Indicator
    ASHRAETau,                !- Solar Model Indicator
    ,                         !- Beam Solar Day Schedule Name
    ,                         !- Diffuse Solar Day Schedule Name
    0.465,                    !- ASHRAE Clear Sky Optical Depth for Beam Irradiance taub
    1.966;                    !- ASHRAE Clear Sky Optical Depth for Diffuse Irradiance taud

SizingPeriod:DesignDay,
    Montreal Int'l Ann Htg 99.6% Condns DB,    !- Name
    1,                        !- Month
    21,                       !- Day of Month
    WinterDesignDay,          !- Day Type
    -23.7,                    !- Maximum DryBulb Temperature
    0.0,                      !- Daily DryBulb Temperature Range
    DefaultMultipliers,       !- DryBulb Temperature Range Modifier Type
    ,                         !- DryBulb Temperature Range Modifier Day Schedule Name
    Wetbulb,                  !- Humidity Condition Type
    -23.7,                    !- Wetbulb or DewPoint at Maximum DryBulb
    ,                         !- Humidity Condition Day Schedule Name
    ,                         !- Humidity Ratio at Maximum DryBulb
    ,                         !- Enthalpy at Maximum DryBulb
    ,                         !- Daily WetBulb Temperature Range
    100893.0,                 !- Barometric Pressure
    3.9,                      !- Wind Speed
    260.0,                    !- Wind Direction
    No,                       !- Rain Indicator
    No,                       !- Snow Indicator
    No,                       !- Daylight Saving Time Indicator
    ASHRAEClearSky,           !- Solar Model Indicator
    ,                         !- Beam Solar Day Schedule Name
    ,                         !- Diffuse Solar Day Schedule Name
    ,                         !- ASHRAE Clear Sky Optical Depth for Beam Irradiance taub
    ,                         !- ASHRAE Clear Sky Optical Depth for Diffuse Irradiance taud
    0.0;                      !- Sky Clearness

RunPeriod,
    Run Period 1,             !- Name
    1,                        !- Begin Month
    1,                        !- Begin Day of Month
    12,                       !- End Month
    31,                       !- End Day of Month
    Sunday,                   !- Day of Week for Start Day
    No,                       !- Use Weather File Holidays and Special Days
    No,                       !- Use Weather File Daylight Saving Period
    Yes,                      !- Apply Weekend Holiday Rule
    Yes,                      !- Use Weather File Rain Indicators
    Yes,                      !- Use Weather File Snow Indicators
    1;                        !- Number of Times Runperiod to be Repeated

Site:GroundTemperature:BuildingSurface,
    19.527,                   !- January Ground Temperature
    19.502,                   !- February Ground Temperature
    19.536,                   !- March Ground Temperature
    19.598,                   !- April Ground Temperature
    20.002,                   !- May Ground Temperature
    21.64,                    !- June Ground Temperature
    22.225,                   !- July Ground Temperature
    22.375,                   !- August Ground Temperature
    21.449,                   !- September Ground Temperature
    20.121,                   !- October Ground Temperature
    19.802,                   !- November Ground Temperature
    19.633;                   !- December Ground Temperature

Site:WaterMainsTemperature,
    Correlation,              !- Calculation Method
    ,                         !- Temperature Schedule Name
    6.25,                     !- Annual Average Outdoor Air Temperature
    30.2;                     !- Maximum Difference In Monthly Average Outdoor Air Temperatures

ScheduleTypeLimits,
    Sp-CorridorFlr1 Sys-3 Flr-2 Sch-F HPlcmt-north ZN Thermostat Schedule Type Limits,    !- Name
    0.0,                      !- Lower Limit Value
    4.0,                      !- Upper Limit Value
    DISCRETE;                 !- Numeric Type

ScheduleTypeLimits,
    Temperature,              !- Name
    ,                         !- Lower Limit Value
    ,                         !- Upper Limit Value
    Continuous,               !- Numeric Type
    temperature;              !- Unit Type

ScheduleTypeLimits,
    Sp-CorridorFlr2 Sys-1 Flr-1 Sch-F HPlcmt-south ZN Thermostat Schedule Type Limits,    !- Name
    0.0,                      !- Lower Limit Value
    4.0,                      !- Upper Limit Value
    DISCRETE;                 !- Numeric Type

ScheduleTypeLimits,
    OnOff,                    !- Name
    0.0,                      !- Lower Limit Value
    1.0,                      !- Upper Limit Value
    Discrete,                 !- Numeric Type
    availability;             !- Unit Type

ScheduleTypeLimits,
    Fractional,               !- Name
    0.0,                      !- Lower Limit Value
    1.0,                      !- Upper Limit Value
    Continuous;               !- Numeric Type

ScheduleTypeLimits,
    Sp-CorridorFlr3 Sys-1 Flr-4 Sch-F HPlcmt-south ZN Thermostat Schedule Type Limits,    !- Name
    0.0,                      !- Lower Limit Value
    4.0,                      !- Upper Limit Value
    DISCRETE;                 !- Numeric Type

ScheduleTypeLimits,
    Sp-CorridorFlr4 Sys-1 Flr-3 Sch-F HPlcmt-south ZN Thermostat Schedule Type Limits,    !- Name
    0.0,                      !- Lower Limit Value
    4.0,                      !- Upper Limit Value
    DISCRETE;                 !- Numeric Type

ScheduleTypeLimits,
    Sp-ElevatorCoreFlr1 Sys-3 Flr-2 Sch-C HPlcmt-south ZN Thermostat Schedule Type Limits,    !- Name
    0.0,                      !- Lower Limit Value
    4.0,                      !- Upper Limit Value
    DISCRETE;                 !- Numeric Type

ScheduleTypeLimits,
    Sp-ElevatorCoreFlr2 Sys-3 Flr-1 Sch-C HPlcmt-south ZN Thermostat Schedule Type Limits,    !- Name
    0.0,                      !- Lower Limit Value
    4.0,                      !- Upper Limit Value
    DISCRETE;                 !- Numeric Type

ScheduleTypeLimits,
    Sp-ElevatorCoreFlr3 Sys-3 Flr-4 Sch-C HPlcmt-south ZN Thermostat Schedule Type Limits,    !- Name
    0.0,                      !- Lower Limit Value
    4.0,                      !- Upper Limit Value
    DISCRETE;                 !- Numeric Type

ScheduleTypeLimits,
    Sp-ElevatorCoreFlr4 Sys-3 Flr-3 Sch-C HPlcmt-south ZN Thermostat Schedule Type Limits,    !- Name
    0.0,                      !- Lower Limit Value
    4.0,                      !- Upper Limit Value
    DISCRETE;                 !- Numeric Type

ScheduleTypeLimits,
    Sp-EmployeeLoungeFlr1 Sys-3 Flr-2 Sch-B HPlcmt-south ZN Thermostat Schedule Type Limits,    !- Name
    0.0,                      !- Lower Limit Value
    4.0,                      !- Upper Limit Value
    DISCRETE;                 !- Numeric Type

ScheduleTypeLimits,
    Sp-ExerciseCenterFlr1 Sys-6 Flr-2 Sch-B HPlcmt-south ZN Thermostat Schedule Type Limits,    !- Name
    0.0,                      !- Lower Limit Value
    4.0,                      !- Upper Limit Value
    DISCRETE;                 !- Numeric Type

ScheduleTypeLimits,
    Sp-FrontLoungeFlr1 Sys-3 Flr-2 Sch-H HPlcmt-north ZN Thermostat Schedule Type Limits,    !- Name
    0.0,                      !- Lower Limit Value
    4.0,                      !- Upper Limit Value
    DISCRETE;                 !- Numeric Type

ScheduleTypeLimits,
    Sp-FrontOfficeFlr1 Sys-6 Flr-2 Sch-A HPlcmt-south ZN Thermostat Schedule Type Limits,    !- Name
    0.0,                      !- Lower Limit Value
    4.0,                      !- Upper Limit Value
    DISCRETE;                 !- Numeric Type

ScheduleTypeLimits,
    Sp-FrontStairsFlr1 Sys-4 Flr-2 Sch-F HPlcmt-east ZN Thermostat Schedule Type Limits,    !- Name
    0.0,                      !- Lower Limit Value
    4.0,                      !- Upper Limit Value
    DISCRETE;                 !- Numeric Type

ScheduleTypeLimits,
    Sp-FrontStairsFlr2 Sys-4 Flr-1 Sch-F HPlcmt-east ZN Thermostat Schedule Type Limits,    !- Name
    0.0,                      !- Lower Limit Value
    4.0,                      !- Upper Limit Value
    DISCRETE;                 !- Numeric Type

ScheduleTypeLimits,
    Sp-FrontStairsFlr3 Sys-4 Flr-4 Sch-F HPlcmt-east ZN Thermostat Schedule Type Limits,    !- Name
    0.0,                      !- Lower Limit Value
    4.0,                      !- Upper Limit Value
    DISCRETE;                 !- Numeric Type

ScheduleTypeLimits,
    Sp-FrontStairsFlr4 Sys-4 Flr-3 Sch-F HPlcmt-east ZN Thermostat Schedule Type Limits,    !- Name
    0.0,                      !- Lower Limit Value
    4.0,                      !- Upper Limit Value
    DISCRETE;                 !- Numeric Type

ScheduleTypeLimits,
    Sp-FrontStorageFlr1 Sys-4 Flr-2 Sch-E HPlcmt-south ZN Thermostat Schedule Type Limits,    !- Name
    0.0,                      !- Lower Limit Value
    4.0,                      !- Upper Limit Value
    DISCRETE;                 !- Numeric Type

ScheduleTypeLimits,
    Sp-FrontStorageFlr2 Sys-4 Flr-1 Sch-E HPlcmt-south ZN Thermostat Schedule Type Limits,    !- Name
    0.0,                      !- Lower Limit Value
    4.0,                      !- Upper Limit Value
    DISCRETE;                 !- Numeric Type

ScheduleTypeLimits,
    Sp-FrontStorageFlr3 Sys-4 Flr-4 Sch-E HPlcmt-south ZN Thermostat Schedule Type Limits,    !- Name
    0.0,                      !- Lower Limit Value
    4.0,                      !- Upper Limit Value
    DISCRETE;                 !- Numeric Type

ScheduleTypeLimits,
    Sp-FrontStorageFlr4 Sys-4 Flr-3 Sch-E HPlcmt-south ZN Thermostat Schedule Type Limits,    !- Name
    0.0,                      !- Lower Limit Value
    4.0,                      !- Upper Limit Value
    DISCRETE;                 !- Numeric Type

ScheduleTypeLimits,
    Sp-GuestRoom101 Sys-1 Flr-2 Sch-F HPlcmt-north ZN Thermostat Schedule Type Limits,    !- Name
    0.0,                      !- Lower Limit Value
    4.0,                      !- Upper Limit Value
    DISCRETE;                 !- Numeric Type

ScheduleTypeLimits,
    Sp-GuestRoom102 Sys-1 Flr-2 Sch-F HPlcmt-north ZN Thermostat Schedule Type Limits,    !- Name
    0.0,                      !- Lower Limit Value
    4.0,                      !- Upper Limit Value
    DISCRETE;                 !- Numeric Type

ScheduleTypeLimits,
    Sp-GuestRoom103 Sys-1 Flr-2 Sch-F HPlcmt-north ZN Thermostat Schedule Type Limits,    !- Name
    0.0,                      !- Lower Limit Value
    4.0,                      !- Upper Limit Value
    DISCRETE;                 !- Numeric Type

ScheduleTypeLimits,
    Sp-GuestRoom104 Sys-1 Flr-2 Sch-F HPlcmt-south ZN Thermostat Schedule Type Limits,    !- Name
    0.0,                      !- Lower Limit Value
    4.0,                      !- Upper Limit Value
    DISCRETE;                 !- Numeric Type

ScheduleTypeLimits,
    Sp-GuestRoom105 Sys-1 Flr-2 Sch-F HPlcmt-south ZN Thermostat Schedule Type Limits,    !- Name
    0.0,                      !- Lower Limit Value
    4.0,                      !- Upper Limit Value
    DISCRETE;                 !- Numeric Type

ScheduleTypeLimits,
    Sp-GuestRoom201 Sys-1 Flr-1 Sch-F HPlcmt-east ZN Thermostat Schedule Type Limits,    !- Name
    0.0,                      !- Lower Limit Value
    4.0,                      !- Upper Limit Value
    DISCRETE;                 !- Numeric Type

ScheduleTypeLimits,
    Sp-GuestRoom202_205 Sys-1 Flr-1 Sch-F HPlcmt-north ZN Thermostat Schedule Type Limits,    !- Name
    0.0,                      !- Lower Limit Value
    4.0,                      !- Upper Limit Value
    DISCRETE;                 !- Numeric Type

ScheduleTypeLimits,
    Sp-GuestRoom206_208 Sys-1 Flr-1 Sch-F HPlcmt-north ZN Thermostat Schedule Type Limits,    !- Name
    0.0,                      !- Lower Limit Value
    4.0,                      !- Upper Limit Value
    DISCRETE;                 !- Numeric Type

ScheduleTypeLimits,
    Sp-GuestRoom209_212 Sys-1 Flr-1 Sch-F HPlcmt-north ZN Thermostat Schedule Type Limits,    !- Name
    0.0,                      !- Lower Limit Value
    4.0,                      !- Upper Limit Value
    DISCRETE;                 !- Numeric Type

ScheduleTypeLimits,
    Sp-GuestRoom213 Sys-1 Flr-1 Sch-F HPlcmt-north ZN Thermostat Schedule Type Limits,    !- Name
    0.0,                      !- Lower Limit Value
    4.0,                      !- Upper Limit Value
    DISCRETE;                 !- Numeric Type

ScheduleTypeLimits,
    Sp-GuestRoom214 Sys-1 Flr-1 Sch-F HPlcmt-south ZN Thermostat Schedule Type Limits,    !- Name
    0.0,                      !- Lower Limit Value
    4.0,                      !- Upper Limit Value
    DISCRETE;                 !- Numeric Type

ScheduleTypeLimits,
    Sp-GuestRoom215_218 Sys-1 Flr-1 Sch-F HPlcmt-south ZN Thermostat Schedule Type Limits,    !- Name
    0.0,                      !- Lower Limit Value
    4.0,                      !- Upper Limit Value
    DISCRETE;                 !- Numeric Type

ScheduleTypeLimits,
    Sp-GuestRoom219 Sys-1 Flr-1 Sch-F HPlcmt-south ZN Thermostat Schedule Type Limits,    !- Name
    0.0,                      !- Lower Limit Value
    4.0,                      !- Upper Limit Value
    DISCRETE;                 !- Numeric Type

ScheduleTypeLimits,
    Sp-GuestRoom220_223 Sys-1 Flr-1 Sch-F HPlcmt-south ZN Thermostat Schedule Type Limits,    !- Name
    0.0,                      !- Lower Limit Value
    4.0,                      !- Upper Limit Value
    DISCRETE;                 !- Numeric Type

ScheduleTypeLimits,
    Sp-GuestRoom224 Sys-1 Flr-1 Sch-F HPlcmt-south ZN Thermostat Schedule Type Limits,    !- Name
    0.0,                      !- Lower Limit Value
    4.0,                      !- Upper Limit Value
    DISCRETE;                 !- Numeric Type

ScheduleTypeLimits,
    Sp-GuestRoom301 Sys-1 Flr-4 Sch-F HPlcmt-east ZN Thermostat Schedule Type Limits,    !- Name
    0.0,                      !- Lower Limit Value
    4.0,                      !- Upper Limit Value
    DISCRETE;                 !- Numeric Type

ScheduleTypeLimits,
    Sp-GuestRoom302_305 Sys-1 Flr-4 Sch-F HPlcmt-north ZN Thermostat Schedule Type Limits,    !- Name
    0.0,                      !- Lower Limit Value
    4.0,                      !- Upper Limit Value
    DISCRETE;                 !- Numeric Type

ScheduleTypeLimits,
    Sp-GuestRoom306_308 Sys-1 Flr-4 Sch-F HPlcmt-north ZN Thermostat Schedule Type Limits,    !- Name
    0.0,                      !- Lower Limit Value
    4.0,                      !- Upper Limit Value
    DISCRETE;                 !- Numeric Type

ScheduleTypeLimits,
    Sp-GuestRoom309_312 Sys-1 Flr-4 Sch-F HPlcmt-north ZN Thermostat Schedule Type Limits,    !- Name
    0.0,                      !- Lower Limit Value
    4.0,                      !- Upper Limit Value
    DISCRETE;                 !- Numeric Type

ScheduleTypeLimits,
    Sp-GuestRoom313 Sys-1 Flr-4 Sch-F HPlcmt-north ZN Thermostat Schedule Type Limits,    !- Name
    0.0,                      !- Lower Limit Value
    4.0,                      !- Upper Limit Value
    DISCRETE;                 !- Numeric Type

ScheduleTypeLimits,
    Sp-GuestRoom314 Sys-1 Flr-4 Sch-F HPlcmt-south ZN Thermostat Schedule Type Limits,    !- Name
    0.0,                      !- Lower Limit Value
    4.0,                      !- Upper Limit Value
    DISCRETE;                 !- Numeric Type

ScheduleTypeLimits,
    Sp-GuestRoom315_318 Sys-1 Flr-4 Sch-F HPlcmt-south ZN Thermostat Schedule Type Limits,    !- Name
    0.0,                      !- Lower Limit Value
    4.0,                      !- Upper Limit Value
    DISCRETE;                 !- Numeric Type

ScheduleTypeLimits,
    Sp-GuestRoom319 Sys-1 Flr-4 Sch-F HPlcmt-south ZN Thermostat Schedule Type Limits,    !- Name
    0.0,                      !- Lower Limit Value
    4.0,                      !- Upper Limit Value
    DISCRETE;                 !- Numeric Type

ScheduleTypeLimits,
    Sp-GuestRoom320_323 Sys-1 Flr-4 Sch-F HPlcmt-south ZN Thermostat Schedule Type Limits,    !- Name
    0.0,                      !- Lower Limit Value
    4.0,                      !- Upper Limit Value
    DISCRETE;                 !- Numeric Type

ScheduleTypeLimits,
    Sp-GuestRoom324 Sys-1 Flr-4 Sch-F HPlcmt-south ZN Thermostat Schedule Type Limits,    !- Name
    0.0,                      !- Lower Limit Value
    4.0,                      !- Upper Limit Value
    DISCRETE;                 !- Numeric Type

ScheduleTypeLimits,
    Sp-GuestRoom401 Sys-1 Flr-3 Sch-F HPlcmt-east ZN Thermostat Schedule Type Limits,    !- Name
    0.0,                      !- Lower Limit Value
    4.0,                      !- Upper Limit Value
    DISCRETE;                 !- Numeric Type

ScheduleTypeLimits,
    Sp-GuestRoom402_405 Sys-1 Flr-3 Sch-F HPlcmt-north ZN Thermostat Schedule Type Limits,    !- Name
    0.0,                      !- Lower Limit Value
    4.0,                      !- Upper Limit Value
    DISCRETE;                 !- Numeric Type

ScheduleTypeLimits,
    Sp-GuestRoom406_408 Sys-1 Flr-3 Sch-F HPlcmt-north ZN Thermostat Schedule Type Limits,    !- Name
    0.0,                      !- Lower Limit Value
    4.0,                      !- Upper Limit Value
    DISCRETE;                 !- Numeric Type

ScheduleTypeLimits,
    Sp-GuestRoom409_412 Sys-1 Flr-3 Sch-F HPlcmt-north ZN Thermostat Schedule Type Limits,    !- Name
    0.0,                      !- Lower Limit Value
    4.0,                      !- Upper Limit Value
    DISCRETE;                 !- Numeric Type

ScheduleTypeLimits,
    Sp-GuestRoom413 Sys-1 Flr-3 Sch-F HPlcmt-north ZN Thermostat Schedule Type Limits,    !- Name
    0.0,                      !- Lower Limit Value
    4.0,                      !- Upper Limit Value
    DISCRETE;                 !- Numeric Type

ScheduleTypeLimits,
    Sp-GuestRoom414 Sys-1 Flr-3 Sch-F HPlcmt-south ZN Thermostat Schedule Type Limits,    !- Name
    0.0,                      !- Lower Limit Value
    4.0,                      !- Upper Limit Value
    DISCRETE;                 !- Numeric Type

ScheduleTypeLimits,
    Sp-GuestRoom415_418 Sys-1 Flr-3 Sch-F HPlcmt-south ZN Thermostat Schedule Type Limits,    !- Name
    0.0,                      !- Lower Limit Value
    4.0,                      !- Upper Limit Value
    DISCRETE;                 !- Numeric Type

ScheduleTypeLimits,
    Sp-GuestRoom419 Sys-1 Flr-3 Sch-F HPlcmt-south ZN Thermostat Schedule Type Limits,    !- Name
    0.0,                      !- Lower Limit Value
    4.0,                      !- Upper Limit Value
    DISCRETE;                 !- Numeric Type

ScheduleTypeLimits,
    Sp-GuestRoom420_423 Sys-1 Flr-3 Sch-F HPlcmt-south ZN Thermostat Schedule Type Limits,    !- Name
    0.0,                      !- Lower Limit Value
    4.0,                      !- Upper Limit Value
    DISCRETE;                 !- Numeric Type

ScheduleTypeLimits,
    Sp-GuestRoom424 Sys-1 Flr-3 Sch-F HPlcmt-south ZN Thermostat Schedule Type Limits,    !- Name
    0.0,                      !- Lower Limit Value
    4.0,                      !- Upper Limit Value
    DISCRETE;                 !- Numeric Type

ScheduleTypeLimits,
    Sp-LaundryRoomFlr1 Sys-4 Flr-2 Sch-E HPlcmt-south ZN Thermostat Schedule Type Limits,    !- Name
    0.0,                      !- Lower Limit Value
    4.0,                      !- Upper Limit Value
    DISCRETE;                 !- Numeric Type

ScheduleTypeLimits,
    Sp-MechanicalRoomFlr1 Sys-3 Flr-2 Sch-F HPlcmt-north ZN Thermostat Schedule Type Limits,    !- Name
    0.0,                      !- Lower Limit Value
    4.0,                      !- Upper Limit Value
    DISCRETE;                 !- Numeric Type

ScheduleTypeLimits,
    Sp-MeetingRoomFlr1 Sys-3 Flr-2 Sch-F HPlcmt-north ZN Thermostat Schedule Type Limits,    !- Name
    0.0,                      !- Lower Limit Value
    4.0,                      !- Upper Limit Value
    DISCRETE;                 !- Numeric Type

ScheduleTypeLimits,
    Sp-RearStairsFlr1 Sys-1 Flr-2 Sch-F HPlcmt-west ZN Thermostat Schedule Type Limits,    !- Name
    0.0,                      !- Lower Limit Value
    4.0,                      !- Upper Limit Value
    DISCRETE;                 !- Numeric Type

ScheduleTypeLimits,
    Sp-RearStairsFlr2 Sys-1 Flr-1 Sch-F HPlcmt-west ZN Thermostat Schedule Type Limits,    !- Name
    0.0,                      !- Lower Limit Value
    4.0,                      !- Upper Limit Value
    DISCRETE;                 !- Numeric Type

ScheduleTypeLimits,
    Sp-RearStairsFlr3 Sys-1 Flr-4 Sch-F HPlcmt-west ZN Thermostat Schedule Type Limits,    !- Name
    0.0,                      !- Lower Limit Value
    4.0,                      !- Upper Limit Value
    DISCRETE;                 !- Numeric Type

ScheduleTypeLimits,
    Sp-RearStairsFlr4 Sys-1 Flr-3 Sch-F HPlcmt-west ZN Thermostat Schedule Type Limits,    !- Name
    0.0,                      !- Lower Limit Value
    4.0,                      !- Upper Limit Value
    DISCRETE;                 !- Numeric Type

ScheduleTypeLimits,
    Sp-RearStorageFlr1 Sys-4 Flr-2 Sch-E HPlcmt-west ZN Thermostat Schedule Type Limits,    !- Name
    0.0,                      !- Lower Limit Value
    4.0,                      !- Upper Limit Value
    DISCRETE;                 !- Numeric Type

ScheduleTypeLimits,
    Sp-RearStorageFlr2 Sys-4 Flr-1 Sch-E HPlcmt-west ZN Thermostat Schedule Type Limits,    !- Name
    0.0,                      !- Lower Limit Value
    4.0,                      !- Upper Limit Value
    DISCRETE;                 !- Numeric Type

ScheduleTypeLimits,
    Sp-RearStorageFlr3 Sys-4 Flr-4 Sch-E HPlcmt-west ZN Thermostat Schedule Type Limits,    !- Name
    0.0,                      !- Lower Limit Value
    4.0,                      !- Upper Limit Value
    DISCRETE;                 !- Numeric Type

ScheduleTypeLimits,
    Sp-RearStorageFlr4 Sys-4 Flr-3 Sch-E HPlcmt-west ZN Thermostat Schedule Type Limits,    !- Name
    0.0,                      !- Lower Limit Value
    4.0,                      !- Upper Limit Value
    DISCRETE;                 !- Numeric Type

ScheduleTypeLimits,
    Sp-RestroomFlr1 Sys-3 Flr-2 Sch-F HPlcmt-north ZN Thermostat Schedule Type Limits,    !- Name
    0.0,                      !- Lower Limit Value
    4.0,                      !- Upper Limit Value
    DISCRETE;                 !- Numeric Type

ScheduleTypeLimits,
    ActivityLevel,            !- Name
    0.0,                      !- Lower Limit Value
    ,                         !- Upper Limit Value
    Continuous,               !- Numeric Type
    activitylevel;            !- Unit Type

ScheduleTypeLimits,
    Any Number;               !- Name

ScheduleTypeLimits,
    ON_OFF,                   !- Name
    0.0,                      !- Lower Limit Value
    1.0,                      !- Upper Limit Value
    DISCRETE,                 !- Numeric Type
    dimensionless;            !- Unit Type

ScheduleTypeLimits,
    TEMPERATURE 1,            !- Name
    ,                         !- Lower Limit Value
    ,                         !- Upper Limit Value
    Continuous,               !- Numeric Type
    temperature;              !- Unit Type

ScheduleTypeLimits,
    TEMPERATURE 2,            !- Name
    ,                         !- Lower Limit Value
    ,                         !- Upper Limit Value
    Continuous,               !- Numeric Type
    temperature;              !- Unit Type

ScheduleTypeLimits,
    Temperature Schedule Type Limits,    !- Name
    0.0,                      !- Lower Limit Value
    100.0,                    !- Upper Limit Value
    Continuous,               !- Numeric Type
    temperature;              !- Unit Type

ScheduleTypeLimits,
    Temperature Schedule Type Limits 1,    !- Name
    0.0,                      !- Lower Limit Value
    100.0,                    !- Upper Limit Value
    Continuous,               !- Numeric Type
    temperature;              !- Unit Type

ScheduleTypeLimits,
    Velocity,                 !- Name
    0.0,                      !- Lower Limit Value
    ,                         !- Upper Limit Value
    Continuous,               !- Numeric Type
    velocity;                 !- Unit Type

Schedule:Day:Interval,
    NECB-F-Thermostat Setpoint-Heating Sun|Hol Day,    !- Name
    Temperature,              !- Schedule Type Limits Name
    No,                       !- Interpolate to Timestep
    01:00,                    !- Time 1
    22.0,                     !- Value Until Time 1
    07:00,                    !- Time 2
    18.0,                     !- Value Until Time 2
    08:00,                    !- Time 3
    20.0,                     !- Value Until Time 3
    24:00,                    !- Time 4
    22.0;                     !- Value Until Time 4

Schedule:Day:Interval,
    NECB-F-Thermostat Setpoint-Heating Default|Wkdy Day,    !- Name
    Temperature,              !- Schedule Type Limits Name
    No,                       !- Interpolate to Timestep
    01:00,                    !- Time 1
    22.0,                     !- Value Until Time 1
    07:00,                    !- Time 2
    18.0,                     !- Value Until Time 2
    08:00,                    !- Time 3
    20.0,                     !- Value Until Time 3
    24:00,                    !- Time 4
    22.0;                     !- Value Until Time 4

Schedule:Day:Interval,