!- Darwin Line endings

Version,
    8.9;                      !- Version Identifier

SimulationControl,
    Yes,                      !- Do Zone Sizing Calculation
    Yes,                      !- Do System Sizing Calculation
    Yes,                      !- Do Plant Sizing Calculation
    No,                       !- Run Simulation for Sizing Periods
    Yes;                      !- Run Simulation for Weather File Run Periods

Building,
    NECB 2011-MediumOffice-NECB HDD Method-CAN_PQ_Montreal.Intl.AP.716270_CWEC.epw created: 2017-06-30 14:18:17 +0000,    !- Name
    0.0,                      !- North Axis
    City,                     !- Terrain
    0.04,                     !- Loads Convergence Tolerance Value
    0.2,                      !- Temperature Convergence Tolerance Value
    FullInteriorAndExterior,    !- Solar Distribution
    25,                       !- Maximum Number of Warmup Days
    6;                        !- Minimum Number of Warmup Days

ShadowCalculation,
    AverageOverDaysInFrequency,    !- Calculation Method
    7,                        !- Calculation Frequency
    15000;                    !- Maximum Figures in Shadow Overlap Calculations

SurfaceConvectionAlgorithm:Inside,
    TARP;                     !- Algorithm

SurfaceConvectionAlgorithm:Outside,
    TARP;                     !- Algorithm

HeatBalanceAlgorithm,
    ConductionTransferFunction,    !- Algorithm
    200.0;                    !- Surface Temperature Upper Limit

Timestep,
    6;                        !- Number of Timesteps per Hour

ConvergenceLimits,
    2,                        !- Minimum System Timestep
    25;                       !- Maximum HVAC Iterations

Site:Location,
    Montreal Int'l_PQ_CAN,    !- Name
    45.47,                    !- Latitude
    -73.75,                   !- Longitude
    -5.0,                     !- Time Zone
    36.0;                     !- Elevation

SizingPeriod:DesignDay,
    Montreal Int'l Ann Clg .4% Condns DB=>MWB,    !- Name
    7,                        !- Month
    21,                       !- Day of Month
    SummerDesignDay,          !- Day Type
    30.0,                     !- Maximum DryBulb Temperature
    9.3,                      !- Daily DryBulb Temperature Range
    DefaultMultipliers,       !- DryBulb Temperature Range Modifier Type
    ,                         !- DryBulb Temperature Range Modifier Day Schedule Name
    Wetbulb,                  !- Humidity Condition Type
    22.1,                     !- Wetbulb or DewPoint at Maximum DryBulb
    ,                         !- Humidity Condition Day Schedule Name
    ,                         !- Humidity Ratio at Maximum DryBulb
    ,                         !- Enthalpy at Maximum DryBulb
    ,                         !- Daily WetBulb Temperature Range
    100893.0,                 !- Barometric Pressure
    4.9,                      !- Wind Speed
    220.0,                    !- Wind Direction
    No,                       !- Rain Indicator
    No,                       !- Snow Indicator
    No,                       !- Daylight Saving Time Indicator
    ASHRAETau,                !- Solar Model Indicator
    ,                         !- Beam Solar Day Schedule Name
    ,                         !- Diffuse Solar Day Schedule Name
    0.465,                    !- ASHRAE Clear Sky Optical Depth for Beam Irradiance taub
    1.966;                    !- ASHRAE Clear Sky Optical Depth for Diffuse Irradiance taud

SizingPeriod:DesignDay,
    Montreal Int'l Ann Clg .4% Condns WB=>MDB,    !- Name
    7,                        !- Month
    21,                       !- Day of Month
    SummerDesignDay,          !- Day Type
    28.1,                     !- Maximum DryBulb Temperature
    9.3,                      !- Daily DryBulb Temperature Range
    DefaultMultipliers,       !- DryBulb Temperature Range Modifier Type
    ,                         !- DryBulb Temperature Range Modifier Day Schedule Name
    Wetbulb,                  !- Humidity Condition Type
    23.2,                     !- Wetbulb or DewPoint at Maximum DryBulb
    ,                         !- Humidity Condition Day Schedule Name
    ,                         !- Humidity Ratio at Maximum DryBulb
    ,                         !- Enthalpy at Maximum DryBulb
    ,                         !- Daily WetBulb Temperature Range
    100893.0,                 !- Barometric Pressure
    4.9,                      !- Wind Speed
    220.0,                    !- Wind Direction
    No,                       !- Rain Indicator
    No,                       !- Snow Indicator
    No,                       !- Daylight Saving Time Indicator
    ASHRAETau,                !- Solar Model Indicator
    ,                         !- Beam Solar Day Schedule Name
    ,                         !- Diffuse Solar Day Schedule Name
    0.465,                    !- ASHRAE Clear Sky Optical Depth for Beam Irradiance taub
    1.966;                    !- ASHRAE Clear Sky Optical Depth for Diffuse Irradiance taud

SizingPeriod:DesignDay,
    Montreal Int'l Ann Htg 99.6% Condns DB,    !- Name
    1,                        !- Month
    21,                       !- Day of Month
    WinterDesignDay,          !- Day Type
    -23.7,                    !- Maximum DryBulb Temperature
    0.0,                      !- Daily DryBulb Temperature Range
    DefaultMultipliers,       !- DryBulb Temperature Range Modifier Type
    ,                         !- DryBulb Temperature Range Modifier Day Schedule Name
    Wetbulb,                  !- Humidity Condition Type
    -23.7,                    !- Wetbulb or DewPoint at Maximum DryBulb
    ,                         !- Humidity Condition Day Schedule Name
    ,                         !- Humidity Ratio at Maximum DryBulb
    ,                         !- Enthalpy at Maximum DryBulb
    ,                         !- Daily WetBulb Temperature Range
    100893.0,                 !- Barometric Pressure
    3.9,                      !- Wind Speed
    260.0,                    !- Wind Direction
    No,                       !- Rain Indicator
    No,                       !- Snow Indicator
    No,                       !- Daylight Saving Time Indicator
    ASHRAEClearSky,           !- Solar Model Indicator
    ,                         !- Beam Solar Day Schedule Name
    ,                         !- Diffuse Solar Day Schedule Name
    ,                         !- ASHRAE Clear Sky Optical Depth for Beam Irradiance taub
    ,                         !- ASHRAE Clear Sky Optical Depth for Diffuse Irradiance taud
    0.0;                      !- Sky Clearness

RunPeriod,
    Run Period 1,             !- Name
    1,                        !- Begin Month
    1,                        !- Begin Day of Month
    12,                       !- End Month
    31,                       !- End Day of Month
    Sunday,                   !- Day of Week for Start Day
    No,                       !- Use Weather File Holidays and Special Days
    No,                       !- Use Weather File Daylight Saving Period
    No,                       !- Apply Weekend Holiday Rule
    Yes,                      !- Use Weather File Rain Indicators
    Yes,                      !- Use Weather File Snow Indicators
    1;                        !- Number of Times Runperiod to be Repeated

Site:GroundTemperature:BuildingSurface,
    19.527,                   !- January Ground Temperature
    19.502,                   !- February Ground Temperature
    19.536,                   !- March Ground Temperature
    19.598,                   !- April Ground Temperature
    20.002,                   !- May Ground Temperature
    21.64,                    !- June Ground Temperature
    22.225,                   !- July Ground Temperature
    22.375,                   !- August Ground Temperature
    21.449,                   !- September Ground Temperature
    20.121,                   !- October Ground Temperature
    19.802,                   !- November Ground Temperature
    19.633;                   !- December Ground Temperature

Site:WaterMainsTemperature,
    Correlation,              !- Calculation Method
    ,                         !- Temperature Schedule Name
    6.25,                     !- Annual Average Outdoor Air Temperature
    30.2;                     !- Maximum Difference In Monthly Average Outdoor Air Temperatures

ScheduleTypeLimits,
    Sp-Core_bottom Sys-6 Flr-2 Sch-A HPlcmt-core ZN Thermostat Schedule Type Limits,    !- Name
    0.0,                      !- Lower Limit Value
    4.0,                      !- Upper Limit Value
    DISCRETE;                 !- Numeric Type

ScheduleTypeLimits,
    Temperature,              !- Name
    ,                         !- Lower Limit Value
    ,                         !- Upper Limit Value
    Continuous,               !- Numeric Type
    temperature;              !- Unit Type

ScheduleTypeLimits,
    Fractional,               !- Name
    0.0,                      !- Lower Limit Value
    1.0,                      !- Upper Limit Value
    Continuous;               !- Numeric Type

ScheduleTypeLimits,
    Sp-Core_mid Sys-6 Flr-3 Sch-A HPlcmt-core ZN Thermostat Schedule Type Limits,    !- Name
    0.0,                      !- Lower Limit Value
    4.0,                      !- Upper Limit Value
    DISCRETE;                 !- Numeric Type

ScheduleTypeLimits,
    Sp-Core_top Sys-6 Flr-1 Sch-A HPlcmt-core ZN Thermostat Schedule Type Limits,    !- Name
    0.0,                      !- Lower Limit Value
    4.0,                      !- Upper Limit Value
    DISCRETE;                 !- Numeric Type

ScheduleTypeLimits,
    Sp-Perimeter_bot_ZN_1 Sys-6 Flr-2 Sch-A HPlcmt-south ZN Thermostat Schedule Type Limits,    !- Name
    0.0,                      !- Lower Limit Value
    4.0,                      !- Upper Limit Value
    DISCRETE;                 !- Numeric Type

ScheduleTypeLimits,
    Sp-Perimeter_bot_ZN_2 Sys-6 Flr-2 Sch-A HPlcmt-east ZN Thermostat Schedule Type Limits,    !- Name
    0.0,                      !- Lower Limit Value
    4.0,                      !- Upper Limit Value
    DISCRETE;                 !- Numeric Type

ScheduleTypeLimits,
    Sp-Perimeter_bot_ZN_3 Sys-6 Flr-2 Sch-A HPlcmt-north ZN Thermostat Schedule Type Limits,    !- Name
    0.0,                      !- Lower Limit Value
    4.0,                      !- Upper Limit Value
    DISCRETE;                 !- Numeric Type

ScheduleTypeLimits,
    Sp-Perimeter_bot_ZN_4 Sys-6 Flr-2 Sch-A HPlcmt-west ZN Thermostat Schedule Type Limits,    !- Name
    0.0,                      !- Lower Limit Value
    4.0,                      !- Upper Limit Value
    DISCRETE;                 !- Numeric Type

ScheduleTypeLimits,
    Sp-Perimeter_mid_ZN_1 Sys-6 Flr-3 Sch-A HPlcmt-south ZN Thermostat Schedule Type Limits,    !- Name
    0.0,                      !- Lower Limit Value
    4.0,                      !- Upper Limit Value
    DISCRETE;                 !- Numeric Type

ScheduleTypeLimits,
    Sp-Perimeter_mid_ZN_2 Sys-6 Flr-3 Sch-A HPlcmt-east ZN Thermostat Schedule Type Limits,    !- Name
    0.0,                      !- Lower Limit Value
    4.0,                      !- Upper Limit Value
    DISCRETE;                 !- Numeric Type

ScheduleTypeLimits,
    Sp-Perimeter_mid_ZN_3 Sys-6 Flr-3 Sch-A HPlcmt-north ZN Thermostat Schedule Type Limits,    !- Name
    0.0,                      !- Lower Limit Value
    4.0,                      !- Upper Limit Value
    DISCRETE;                 !- Numeric Type

ScheduleTypeLimits,
    Sp-Perimeter_mid_ZN_4 Sys-6 Flr-3 Sch-A HPlcmt-west ZN Thermostat Schedule Type Limits,    !- Name
    0.0,                      !- Lower Limit Value
    4.0,                      !- Upper Limit Value
    DISCRETE;                 !- Numeric Type

ScheduleTypeLimits,
    Sp-Perimeter_top_ZN_1 Sys-6 Flr-1 Sch-A HPlcmt-south ZN Thermostat Schedule Type Limits,    !- Name
    0.0,                      !- Lower Limit Value
    4.0,                      !- Upper Limit Value
    DISCRETE;                 !- Numeric Type

ScheduleTypeLimits,
    Sp-Perimeter_top_ZN_2 Sys-6 Flr-1 Sch-A HPlcmt-east ZN Thermostat Schedule Type Limits,    !- Name
    0.0,                      !- Lower Limit Value
    4.0,                      !- Upper Limit Value
    DISCRETE;                 !- Numeric Type

ScheduleTypeLimits,
    Sp-Perimeter_top_ZN_3 Sys-6 Flr-1 Sch-A HPlcmt-north ZN Thermostat Schedule Type Limits,    !- Name
    0.0,                      !- Lower Limit Value
    4.0,                      !- Upper Limit Value
    DISCRETE;                 !- Numeric Type

ScheduleTypeLimits,
    Sp-Perimeter_top_ZN_4 Sys-6 Flr-1 Sch-A HPlcmt-west ZN Thermostat Schedule Type Limits,    !- Name
    0.0,                      !- Lower Limit Value
    4.0,                      !- Upper Limit Value
    DISCRETE;                 !- Numeric Type

ScheduleTypeLimits,
    ActivityLevel,            !- Name
    0.0,                      !- Lower Limit Value
    ,                         !- Upper Limit Value
    Continuous,               !- Numeric Type
    activitylevel;            !- Unit Type

ScheduleTypeLimits,
    Any Number;               !- Name

ScheduleTypeLimits,
    OnOff,                    !- Name
    0.0,                      !- Lower Limit Value
    1.0,                      !- Upper Limit Value
    Discrete,                 !- Numeric Type
    availability;             !- Unit Type

ScheduleTypeLimits,
    TEMPERATURE 1,            !- Name
    ,                         !- Lower Limit Value
    ,                         !- Upper Limit Value
    Continuous,               !- Numeric Type
    temperature;              !- Unit Type

ScheduleTypeLimits,
    TEMPERATURE 2,            !- Name
    ,                         !- Lower Limit Value
    ,                         !- Upper Limit Value
    Continuous,               !- Numeric Type
    temperature;              !- Unit Type

ScheduleTypeLimits,
    Temperature Schedule Type Limits,    !- Name
    0.0,                      !- Lower Limit Value
    100.0,                    !- Upper Limit Value
    Continuous,               !- Numeric Type
    temperature;              !- Unit Type

ScheduleTypeLimits,
    Temperature Schedule Type Limits 1,    !- Name
    0.0,                      !- Lower Limit Value
    100.0,                    !- Upper Limit Value
    Continuous,               !- Numeric Type
    temperature;              !- Unit Type

ScheduleTypeLimits,
    Velocity,                 !- Name
    0.0,                      !- Lower Limit Value
    ,                         !- Upper Limit Value
    Continuous,               !- Numeric Type
    velocity;                 !- Unit Type

Schedule:Day:Interval,
    NECB-A-Thermostat Setpoint-Heating Sun|Hol Day,    !- Name
    Temperature,              !- Schedule Type Limits Name
    No,                       !- Interpolate to Timestep
    24:00,                    !- Time 1
    18.0;                     !- Value Until Time 1

Schedule:Day:Interval,
    NECB-A-Thermostat Setpoint-Heating Default|Wkdy Day,    !- Name
    Temperature,              !- Schedule Type Limits Name
    No,                       !- Interpolate to Timestep
    06:00,                    !- Time 1
    18.0,                     !- Value Until Time 1
    07:00,                    !- Time 2
    20.0,                     !- Value Until Time 2
    21:00,                    !- Time 3
    22.0,                     !- Value Until Time 3
    24:00,                    !- Time 4
    18.0;                     !- Value Until Time 4

Schedule:Day:Interval,
    NECB-A-Thermostat Setpoint-Heating Sat Day,    !- Name
    Temperature,              !- Schedule Type Limits Name
    No,                       !- Interpolate to Timestep
    24:00,                    !- Time 1
    18.0;                     !- Value Until Time 1

Schedule:Day:Interval,
    NECB-A-Thermostat Setpoint-Heating Default,    !- Name
    Temperature,              !- Schedule Type Limits Name
    No,                       !- Interpolate to Timestep
    06:00,                    !- Time 1
    18.0,                     !- Value Until Time 1
    07:00,                    !- Time 2
    20.0,                     !- Value Until Time 2
    21:00,                    !- Time 3
    22.0,                     !- Value Until Time 3
    24:00,                    !- Time 4
    18.0;                     !- Value Until Time 4

Schedule:Day:Interval,
    NECB-A-Thermostat Setpoint-Cooling Sun|Hol Day,    !- Name
    Temperature,              !- Schedule Type Limits Name
    No,                       !- Interpolate to Timestep
    24:00,                    !- Time 1
    35.0;                     !- Value Until Time 1

Schedule:Day:Interval,
    NECB-A-Thermostat Setpoint-Cooling Default|Wkdy Day,    !- Name
    Temperature,              !- Schedule Type Limits Name
    No,                       !- Interpolate to Timestep
    06:00,                    !- Time 1
    35.0,                     !- Value Until Time 1
    21:00,                    !- Time 2
    24.0,                     !- Value Until Time 2
    24:00,                    !- Time 3
    35.0;                     !- Value Until Time 3

Schedule:Day:Interval,
    NECB-A-Thermostat Setpoint-Cooling Sat Day,    !- Name
    Temperature,              !- Schedule Type Limits Name
    No,                       !- Interpolate to Timestep
    24:00,                    !- Time 1
    35.0;                     !- Value Until Time 1

Schedule:Day:Interval,
    NECB-A-Thermostat Setpoint-Cooling Default,    !- Name
    Temperature,              !- Schedule Type Limits Name
    No,                       !- Interpolate to Timestep
    06:00,                    !- Time 1
    35.0,                     !- Value Until Time 1
    21:00,                    !- Time 2
    24.0,                     !- Value Until Time 2
    24:00,                    !- Time 3
    35.0;                     !- Value Until Time 3

Schedule:Day:Interval,
    VAV with Reheat Occ Sch Sunday,    !- Name
    Fractional,               !- Schedule Type Limits Name
    No,                       !- Interpolate to Timestep
    24:00,                    !- Time 1
    0.0;                      !- Value Until Time 1

Schedule:Day:Interval,
    VAV with Reheat Occ Sch Monday,    !- Name
    Fractional,               !- Schedule Type Limits Name
    No,                       !- Interpolate to Timestep
    08:00,                    !- Time 1
    0.0,                      !- Value Until Time 1
    19:00,                    !- Time 2
    1.0,                      !- Value Until Time 2
    24:00,                    !- Time 3
    0.0;                      !- Value Until Time 3

Schedule:Day:Interval,
    VAV with Reheat Occ Sch Tuesday,    !- Name
    Fractional,               !- Schedule Type Limits Name
    No,                       !- Interpolate to Timestep
    08:00,                    !- Time 1
    0.0,                      !- Value Until Time 1
    19:00,                    !- Time 2
    1.0,                      !- Value Until Time 2
    24:00,                    !- Time 3
    0.0;                      !- Value Until Time 3

Schedule:Day:Interval,
    VAV with Reheat Occ Sch Wednesday,    !- Name
    Fractional,               !- Schedule Type Limits Name
    No,                       !- Interpolate to Timestep
    08:00,                    !- Time 1
    0.0,                      !- Value Until Time 1
    19:00,                    !- Time 2
    1.0,                      !- Value Until Time 2
    24:00,                    !- Time 3
    0.0;                      !- Value Until Time 3

Schedule:Day:Interval,
    VAV with Reheat Occ Sch Thursday,    !- Name
    Fractional,               !- Schedule Type Limits Name
    No,                       !- Interpolate to Timestep
    08:00,                    !- Time 1
    0.0,                      !- Value Until Time 1
    19:00,                    !- Time 2
    1.0,                      !- Value Until Time 2
    24:00,                    !- Time 3
    0.0;                      !- Value Until Time 3

Schedule:Day:Interval,
    VAV with Reheat Occ Sch Friday,    !- Name
    Fractional,               !- Schedule Type Limits Name
    No,                       !- Interpolate to Timestep
    08:00,                    !- Time 1
    0.0,                      !- Value Until Time 1
    19:00,                    !- Time 2
    1.0,                      !- Value Until Time 2
    24:00,                    !- Time 3
    0.0;                      !- Value Until Time 3

Schedule:Day:Interval,
    VAV with Reheat Occ Sch Saturday,    !- Name
    Fractional,               !- Schedule Type Limits Name
    No,                       !- Interpolate to Timestep
    24:00,                    !- Time 1
    0.0;                      !- Value Until Time 1

Schedule:Day:Interval,
    VAV with Reheat Occ Sch Default,    !- Name
    Fractional,               !- Schedule Type Limits Name
    No,                       !- Interpolate to Timestep
    24:00,                    !- Time 1
    1.0;                      !- Value Until Time 1

Schedule:Day:Interval,
    VAV with Reheat Occ Sch Summer Design Day,    !- Name
    Fractional,               !- Schedule Type Limits Name
    No,                       !- Interpolate to Timestep
    24:00,                    !- Time 1
    1.0;                      !- Value Until Time 1

Schedule:Day:Interval,
    VAV with Reheat Occ Sch Winter Design Day,    !- Name
    Fractional,               !- Schedule Type Limits Name
    No,                       !- Interpolate to Timestep
    24:00,                    !- Time 1
    1.0;                      !- Value Until Time 1

Schedule:Day:Interval,
    VAV with Reheat 1 Occ Sch Sunday,    !- Name
    Fractional,               !- Schedule Type Limits Name
    No,                       !- Interpolate to Timestep
    24:00,                    !- Time 1
    0.0;                      !- Value Until Time 1

Schedule:Day:Interval,
    VAV with Reheat 1 Occ Sch Monday,    !- Name
    Fractional,               !- Schedule Type Limits Name
    No,                       !- Interpolate to Timestep
    08:00,                    !- Time 1
    0.0,                      !- Value Until Time 1
    19:00,                    !- Time 2
    1.0,                      !- Value Until Time 2
    24:00,                    !- Time 3
    0.0;                      !- Value Until Time 3

Schedule:Day:Interval,
    VAV with Reheat 1 Occ Sch Tuesday,    !- Name
    Fractional,               !- Schedule Type Limits Name
    No,                       !- Interpolate to Timestep
    08:00,                    !- Time 1
    0.0,                      !- Value Until Time 1
    19:00,                    !- Time 2
    1.0,                      !- Value Until Time 2
    24:00,                    !- Time 3
    0.0;                      !- Value Until Time 3

Schedule:Day:Interval,
    VAV with Reheat 1 Occ Sch Wednesday,    !- Name
    Fractional,               !- Schedule Type Limits Name
    No,                       !- Interpolate to Timestep
    08:00,                    !- Time 1
    0.0,                      !- Value Until Time 1
    19:00,                    !- Time 2
    1.0,                      !- Value Until Time 2
    24:00,                    !- Time 3
    0.0;                      !- Value Until Time 3

Schedule:Day:Interval,
    VAV with Reheat 1 Occ Sch Thursday,    !- Name
    Fractional,               !- Schedule Type Limits Name
    No,                       !- Interpolate to Timestep
    08:00,                    !- Time 1
    0.0,                      !- Value Until Time 1
    19:00,                    !- Time 2
    1.0,                      !- Value Until Time 2
    24:00,                    !- Time 3
    0.0;                      !- Value Until Time 3

Schedule:Day:Interval,
    VAV with Reheat 1 Occ Sch Friday,    !- Name
    Fractional,               !- Schedule Type Limits Name
    No,                       !- Interpolate to Timestep
    08:00,                    !- Time 1
    0.0,                      !- Value Until Time 1
    19:00,                    !- Time 2
    1.0,                      !- Value Until Time 2
    24:00,                    !- Time 3
    0.0;                      !- Value Until Time 3

Schedule:Day:Interval,
    VAV with Reheat 1 Occ Sch Saturday,    !- Name
    Fractional,               !- Schedule Type Limits Name
    No,                       !- Interpolate to Timestep
    24:00,                    !- Time 1
    0.0;                      !- Value Until Time 1

Schedule:Day:Interval,
    VAV with Reheat 1 Occ Sch Default,    !- Name
    Fractional,               !- Schedule Type Limits Name
    No,                       !- Interpolate to Timestep
    24:00,                    !- Time 1
    1.0;                      !- Value Until Time 1

Schedule:Day:Interval,
    VAV with Reheat 1 Occ Sch Summer Design Day,    !- Name
    Fractional,               !- Schedule Type Limits Name
    No,                       !- Interpolate to Timestep
    24:00,                    !- Time 1
    1.0;                      !- Value Until Time 1

Schedule:Day:Interval,
    VAV with Reheat 1 Occ Sch Winter Design Day,    !- Name
    Fractional,               !- Schedule Type Limits Name
    No,                       !- Interpolate to Timestep
    24:00,                    !- Time 1
    1.0;                      !- Value Until Time 1

Schedule:Day:Interval,
    VAV with Reheat 2 Occ Sch Sunday,    !- Name
    Fractional,               !- Schedule Type Limits Name
    No,                       !- Interpolate to Timestep
    24:00,                    !- Time 1
    0.0;                      !- Value Until Time 1

Schedule:Day:Interval,
    VAV with Reheat 2 Occ Sch Monday,    !- Name
    Fractional,               !- Schedule Type Limits Name
    No,                       !- Interpolate to Timestep
    08:00,                    !- Time 1
    0.0,                      !- Value Until Time 1
    19:00,                    !- Time 2
    1.0,                      !- Value Until Time 2
    24:00,                    !- Time 3
    0.0;                      !- Value Until Time 3

Schedule:Day:Interval,
    VAV with Reheat 2 Occ Sch Tuesday,    !- Name
    Fractional,               !- Schedule Type Limits Name
    No,                       !- Interpolate to Timestep
    08:00,                    !- Time 1
    0.0,                      !- Value Until Time 1
    19:00,                    !- Time 2
    1.0,                      !- Value Until Time 2
    24:00,                    !- Time 3
    0.0;                      !- Value Until Time 3

Schedule:Day:Interval,
    VAV with Reheat 2 Occ Sch Wednesday,    !- Name
    Fractional,               !- Schedule Type Limits Name
    No,                       !- Interpolate to Timestep
    08:00,                    !- Time 1
    0.0,                      !- Value Until Time 1
    19:00,                    !- Time 2
    1.0,                      !- Value Until Time 2
    24:00,                    !- Time 3
    0.0;                      !- Value Until Time 3

Schedule:Day:Interval,
    VAV with Reheat 2 Occ Sch Thursday,    !- Name
    Fractional,               !- Schedule Type Limits Name
    No,                       !- Interpolate to Timestep
    08:00,                    !- Time 1
    0.0,                      !- Value Until Time 1
    19:00,                    !- Time 2
    1.0,                      !- Value Until Time 2
    24:00,                    !- Time 3
    0.0;                      !- Value Until Time 3

Schedule:Day:Interval,
    VAV with Reheat 2 Occ Sch Friday,    !- Name
    Fractional,               !- Schedule Type Limits Name
    No,                       !- Interpolate to Timestep
    08:00,                    !- Time 1
    0.0,                      !- Value Until Time 1
    19:00,                    !- Time 2
    1.0,                      !- Value Until Time 2
    24:00,                    !- Time 3
    0.0;                      !- Value Until Time 3

Schedule:Day:Interval,
    VAV with Reheat 2 Occ Sch Saturday,    !- Name
    Fractional,               !- Schedule Type Limits Name
    No,                       !- Interpolate to Timestep
    24:00,                    !- Time 1
    0.0;                      !- Value Until Time 1

Schedule:Day:Interval,
    VAV with Reheat 2 Occ Sch Default,    !- Name
    Fractional,               !- Schedule Type Limits Name
    No,                       !- Interpolate to Timestep
    24:00,                    !- Time 1
    1.0;                      !- Value Until Time 1

Schedule:Day:Interval,
    VAV with Reheat 2 Occ Sch Summer Design Day,    !- Name
    Fractional,               !- Schedule Type Limits Name
    No,                       !- Interpolate to Timestep
    24:00,                    !- Time 1
    1.0;                      !- Value Until Time 1

Schedule:Day:Interval,
    VAV with Reheat 2 Occ Sch Winter Design Day,    !- Name
    Fractional,               !- Schedule Type Limits Name
    No,                       !- Interpolate to Timestep
    24:00,                    !- Time 1
    1.0;                      !- Value Until Time 1

Schedule:Day:Interval,
    Air Velocity Schedule Default,    !- Name
    Velocity,                 !- Schedule Type Limits Name
    No,                       !- Interpolate to Timestep
    24:00,                    !- Time 1
    0.2;                      !- Value Until Time 1

Schedule:Day:Interval,
    Always On Default,        !- Name
    Fractional,               !- Schedule Type Limits Name
    No,                       !- Interpolate to Timestep
    24:00,                    !- Time 1
    1.0;                      !- Value Until Time 1

Schedule:Day:Interval,
    Clothing Schedule Default Winter Clothes,    !- Name
    Any Number,               !- Schedule Type Limits Name