!- Windows Line endings 

Version,
    9.2;                      !- Version Identifier

SimulationControl,
    No,                       !- Do Zone Sizing Calculation
    No,                       !- Do System Sizing Calculation
    No,                       !- Do Plant Sizing Calculation
    No,                       !- Run Simulation for Sizing Periods
    Yes;                      !- Run Simulation for Weather File Run Periods

Building,
    Building,                 !- Name
    0,                        !- North Axis
    Suburbs,                  !- Terrain
    0.04,                     !- Loads Convergence Tolerance Value
    0.4,                      !- Temperature Convergence Tolerance Value
    FullExterior,             !- Solar Distribution
    25,                       !- Maximum Number of Warmup Days
    ;                         !- Minimum Number of Warmup Days

ShadowCalculation,
    AverageOverDaysInFrequency,    !- Calculation Method
    20,                       !- Calculation Frequency
    15000,                    !- Maximum Figures in Shadow Overlap Calculations
    SutherlandHodgman,        !- Polygon Clipping Algorithm
    SimpleSkyDiffuseModeling;    !- Sky Diffuse Modeling Algorithm

SurfaceConvectionAlgorithm:Inside,
    TARP;                     !- Algorithm

SurfaceConvectionAlgorithm:Outside,
    DOE-2;                    !- Algorithm

HeatBalanceAlgorithm,
    ConductionTransferFunction,    !- Algorithm
    200,                      !- Surface Temperature Upper Limit
    0.1,                      !- Minimum Surface Convection Heat Transfer Coefficient Value
    1000.0;                   !- Maximum Surface Convection Heat Transfer Coefficient Value

Timestep,
    4;                        !- Number of Timesteps per Hour

ConvergenceLimits,
    1,                        !- Minimum System Timestep
    50;                       !- Maximum HVAC Iterations

RunPeriod,
    ArchSim,                  !- Name
    1,                        !- Begin Month
    1,                        !- Begin Day of Month
    ,                         !- Begin Year
    12,                       !- End Month
    31,                       !- End Day of Month
    ,                         !- End Year
    ,                         !- Day of Week for Start Day
    No,                       !- Use Weather File Holidays and Special Days
    No,                       !- Use Weather File Daylight Saving Period
    Yes,                      !- Apply Weekend Holiday Rule
    Yes,                      !- Use Weather File Rain Indicators
    Yes,                      !- Use Weather File Snow Indicators
    ;                         !- Treat Weather as Actual

RunPeriodControl:DaylightSavingTime,
    Last Sunday in March,     !- Start Date
    Last Sunday in October;    !- End Date

Site:GroundTemperature:BuildingSurface,
    14,                       !- January Ground Temperature
    14,                       !- February Ground Temperature
    14,                       !- March Ground Temperature
    14,                       !- April Ground Temperature
    14,                       !- May Ground Temperature
    14,                       !- June Ground Temperature
    14,                       !- July Ground Temperature
    14,                       !- August Ground Temperature
    14,                       !- September Ground Temperature
    14,                       !- October Ground Temperature
    14,                       !- November Ground Temperature
    14;                       !- December Ground Temperature

Site:GroundReflectance,
    0.2,                      !- January Ground Reflectance
    0.2,                      !- February Ground Reflectance
    0.2,                      !- March Ground Reflectance
    0.2,                      !- April Ground Reflectance
    0.2,                      !- May Ground Reflectance
    0.2,                      !- June Ground Reflectance
    0.2,                      !- July Ground Reflectance
    0.2,                      !- August Ground Reflectance
    0.2,                      !- September Ground Reflectance
    0.2,                      !- October Ground Reflectance
    0.2,                      !- November Ground Reflectance
    0.2;                      !- December Ground Reflectance

Site:GroundReflectance:SnowModifier,
    1.0,                      !- Ground Reflected Solar Modifier
    1.0;                      !- Daylighting Ground Reflected Solar Modifier

ScheduleTypeLimits,
    Any Number;               !- Name

ScheduleTypeLimits,
    Fraction,                 !- Name
    0.0,                      !- Lower Limit Value
    1.0,                      !- Upper Limit Value
    CONTINUOUS;               !- Numeric Type

ScheduleTypeLimits,
    Temperature,              !- Name
    -60.0,                    !- Lower Limit Value
    200.0,                    !- Upper Limit Value
    CONTINUOUS;               !- Numeric Type

ScheduleTypeLimits,
    Control GasType,          !- Name
    0.0,                      !- Lower Limit Value
    4.0,                      !- Upper Limit Value
    DISCRETE;                 !- Numeric Type

ScheduleTypeLimits,
    On/Off,                   !- Name
    0.0,                      !- Lower Limit Value
    1.0,                      !- Upper Limit Value
    DISCRETE;                 !- Numeric Type

Schedule:Day:Hourly,
    B_Off_D_Occ_WD,           !- Name
    Fraction,                 !- Schedule Type Limits Name
    0,                        !- Hour 1
    0,                        !- Hour 2
    0,                        !- Hour 3
    0,                        !- Hour 4
    0,                        !- Hour 5
    0,                        !- Hour 6
    0.1,                      !- Hour 7
    0.2,                      !- Hour 8
    1,                        !- Hour 9
    1,                        !- Hour 10
    1,                        !- Hour 11
    1,                        !- Hour 12
    0.5,                      !- Hour 13
    1,                        !- Hour 14
    1,                        !- Hour 15
    1,                        !- Hour 16
    1,                        !- Hour 17
    0.3,                      !- Hour 18
    0.2,                      !- Hour 19
    0.1,                      !- Hour 20
    0,                        !- Hour 21
    0,                        !- Hour 22
    0,                        !- Hour 23
    0;                        !- Hour 24

Schedule:Day:Hourly,
    B_Off_D_Occ_WE,           !- Name
    Fraction,                 !- Schedule Type Limits Name
    0,                        !- Hour 1
    0,                        !- Hour 2
    0,                        !- Hour 3
    0,                        !- Hour 4
    0,                        !- Hour 5
    0,                        !- Hour 6
    0.1,                      !- Hour 7
    0.1,                      !- Hour 8
    0.1,                      !- Hour 9
    0.1,                      !- Hour 10
    0.1,                      !- Hour 11
    0.1,                      !- Hour 12
    0.1,                      !- Hour 13
    0.1,                      !- Hour 14
    0.1,                      !- Hour 15
    0.1,                      !- Hour 16
    0.1,                      !- Hour 17
    0.1,                      !- Hour 18
    0.1,                      !- Hour 19
    0.1,                      !- Hour 20
    0,                        !- Hour 21
    0,                        !- Hour 22
    0,                        !- Hour 23
    0;                        !- Hour 24

Schedule:Day:Hourly,
    B_Off_D_Het_WD,           !- Name
    Fraction,                 !- Schedule Type Limits Name
    0,                        !- Hour 1
    0,                        !- Hour 2
    0,                        !- Hour 3
    0,                        !- Hour 4
    0,                        !- Hour 5
    0,                        !- Hour 6
    1,                        !- Hour 7
    1,                        !- Hour 8
    1,                        !- Hour 9
    1,                        !- Hour 10
    1,                        !- Hour 11
    1,                        !- Hour 12
    1,                        !- Hour 13
    1,                        !- Hour 14
    1,                        !- Hour 15
    1,                        !- Hour 16
    1,                        !- Hour 17
    1,                        !- Hour 18
    1,                        !- Hour 19
    1,                        !- Hour 20
    0,                        !- Hour 21
    0,                        !- Hour 22
    0,                        !- Hour 23
    0;                        !- Hour 24

Schedule:Day:Hourly,
    B_Off_D_Het_WE,           !- Name
    Fraction,                 !- Schedule Type Limits Name
    0,                        !- Hour 1
    0,                        !- Hour 2
    0,                        !- Hour 3
    0,                        !- Hour 4
    0,                        !- Hour 5
    0,                        !- Hour 6
    0,                        !- Hour 7
    0,                        !- Hour 8
    0,                        !- Hour 9
    0,                        !- Hour 10
    0,                        !- Hour 11
    0,                        !- Hour 12
    0,                        !- Hour 13
    0,                        !- Hour 14
    0,                        !- Hour 15
    0,                        !- Hour 16
    0,                        !- Hour 17
    0,                        !- Hour 18
    0,                        !- Hour 19
    0,                        !- Hour 20
    0,                        !- Hour 21
    0,                        !- Hour 22
    0,                        !- Hour 23
    0;                        !- Hour 24

Schedule:Day:Hourly,
    B_Off_D_Off,              !- Name
    Fraction,                 !- Schedule Type Limits Name
    0,                        !- Hour 1
    0,                        !- Hour 2
    0,                        !- Hour 3
    0,                        !- Hour 4
    0,                        !- Hour 5
    0,                        !- Hour 6
    0,                        !- Hour 7
    0,                        !- Hour 8
    0,                        !- Hour 9
    0,                        !- Hour 10
    0,                        !- Hour 11
    0,                        !- Hour 12
    0,                        !- Hour 13
    0,                        !- Hour 14
    0,                        !- Hour 15
    0,                        !- Hour 16
    0,                        !- Hour 17
    0,                        !- Hour 18
    0,                        !- Hour 19
    0,                        !- Hour 20
    0,                        !- Hour 21
    0,                        !- Hour 22
    0,                        !- Hour 23
    0;                        !- Hour 24

Schedule:Day:Hourly,
    B_Off_D_Col_WD,           !- Name
    Fraction,                 !- Schedule Type Limits Name
    0,                        !- Hour 1
    0,                        !- Hour 2
    0,                        !- Hour 3
    0,                        !- Hour 4
    0,                        !- Hour 5
    0,                        !- Hour 6
    1,                        !- Hour 7
    1,                        !- Hour 8
    1,                        !- Hour 9
    1,                        !- Hour 10
    1,                        !- Hour 11
    1,                        !- Hour 12
    1,                        !- Hour 13
    1,                        !- Hour 14
    1,                        !- Hour 15
    1,                        !- Hour 16
    1,                        !- Hour 17
    1,                        !- Hour 18
    1,                        !- Hour 19
    1,                        !- Hour 20
    0,                        !- Hour 21
    0,                        !- Hour 22
    0,                        !- Hour 23
    0;                        !- Hour 24

Schedule:Day:Hourly,
    B_Off_D_Col_WE,           !- Name
    Fraction,                 !- Schedule Type Limits Name
    0,                        !- Hour 1
    0,                        !- Hour 2
    0,                        !- Hour 3
    0,                        !- Hour 4
    0,                        !- Hour 5
    0,                        !- Hour 6
    0,                        !- Hour 7
    0,                        !- Hour 8
    0,                        !- Hour 9
    0,                        !- Hour 10
    0,                        !- Hour 11
    0,                        !- Hour 12
    0,                        !- Hour 13
    0,                        !- Hour 14
    0,                        !- Hour 15
    0,                        !- Hour 16
    0,                        !- Hour 17
    0,                        !- Hour 18
    0,                        !- Hour 19
    0,                        !- Hour 20
    0,                        !- Hour 21
    0,                        !- Hour 22
    0,                        !- Hour 23
    0;                        !- Hour 24

Schedule:Day:Hourly,
    B_Off_D_Dhw_WD,           !- Name
    Fraction,                 !- Schedule Type Limits Name
    0,                        !- Hour 1
    0,                        !- Hour 2
    0,                        !- Hour 3
    0,                        !- Hour 4
    0,                        !- Hour 5
    0,                        !- Hour 6
    0.2,                      !- Hour 7
    0.4,                      !- Hour 8
    0.4,                      !- Hour 9
    0.4,                      !- Hour 10
    0.4,                      !- Hour 11
    0.6,                      !- Hour 12
    0.6,                      !- Hour 13
    0.4,                      !- Hour 14
    0.4,                      !- Hour 15
    0.4,                      !- Hour 16
    0.4,                      !- Hour 17
    0.4,                      !- Hour 18
    0.4,                      !- Hour 19
    0.2,                      !- Hour 20
    0,                        !- Hour 21
    0,                        !- Hour 22
    0,                        !- Hour 23
    0;                        !- Hour 24

Schedule:Day:Hourly,
    B_Off_D_Dhw_WE,           !- Name
    Fraction,                 !- Schedule Type Limits Name
    0,                        !- Hour 1
    0,                        !- Hour 2
    0,                        !- Hour 3
    0,                        !- Hour 4
    0,                        !- Hour 5
    0,                        !- Hour 6
    0.1,                      !- Hour 7
    0.1,                      !- Hour 8
    0.1,                      !- Hour 9
    0.1,                      !- Hour 10
    0.1,                      !- Hour 11
    0.1,                      !- Hour 12
    0.1,                      !- Hour 13
    0.1,                      !- Hour 14
    0.1,                      !- Hour 15
    0.1,                      !- Hour 16
    0.1,                      !- Hour 17
    0.1,                      !- Hour 18
    0.1,                      !- Hour 19
    0.1,                      !- Hour 20
    0,                        !- Hour 21
    0,                        !- Hour 22
    0,                        !- Hour 23
    0;                        !- Hour 24

Schedule:Day:Hourly,
    B_Off_D_Lgt_WD,           !- Name
    Fraction,                 !- Schedule Type Limits Name
    0.1,                      !- Hour 1
    0.1,                      !- Hour 2
    0.1,                      !- Hour 3
    0.1,                      !- Hour 4
    0.1,                      !- Hour 5
    0.1,                      !- Hour 6
    0.1,                      !- Hour 7
    0.3,                      !- Hour 8
    1,                        !- Hour 9
    1,                        !- Hour 10
    1,                        !- Hour 11
    1,                        !- Hour 12
    0.8,                      !- Hour 13
    1,                        !- Hour 14
    1,                        !- Hour 15
    1,                        !- Hour 16
    1,                        !- Hour 17
    0.5,                      !- Hour 18
    0.3,                      !- Hour 19
    0.3,                      !- Hour 20
    0.2,                      !- Hour 21
    0.2,                      !- Hour 22
    0.1,                      !- Hour 23
    0.1;                      !- Hour 24

Schedule:Day:Hourly,
    B_Off_D_Lgt_WE,           !- Name
    Fraction,                 !- Schedule Type Limits Name
    0.1,                      !- Hour 1
    0.1,                      !- Hour 2
    0.1,                      !- Hour 3
    0.1,                      !- Hour 4
    0.1,                      !- Hour 5
    0.1,                      !- Hour 6
    0.1,                      !- Hour 7
    0.1,                      !- Hour 8
    0.1,                      !- Hour 9
    0.1,                      !- Hour 10
    0.1,                      !- Hour 11
    0.1,                      !- Hour 12
    0.1,                      !- Hour 13
    0.1,                      !- Hour 14
    0.1,                      !- Hour 15
    0.1,                      !- Hour 16
    0.1,                      !- Hour 17
    0.1,                      !- Hour 18
    0.1,                      !- Hour 19
    0.1,                      !- Hour 20
    0.1,                      !- Hour 21
    0.1,                      !- Hour 22
    0.1,                      !- Hour 23
    0.1;                      !- Hour 24

Schedule:Day:Hourly,
    B_Off_D_Plg_WD,           !- Name
    Fraction,                 !- Schedule Type Limits Name
    0.1,                      !- Hour 1
    0.1,                      !- Hour 2
    0.1,                      !- Hour 3
    0.1,                      !- Hour 4
    0.1,                      !- Hour 5
    0.1,                      !- Hour 6
    0.1,                      !- Hour 7
    0.3,                      !- Hour 8
    1,                        !- Hour 9
    1,                        !- Hour 10
    1,                        !- Hour 11
    1,                        !- Hour 12
    0.8,                      !- Hour 13
    1,                        !- Hour 14
    1,                        !- Hour 15
    1,                        !- Hour 16
    1,                        !- Hour 17
    1,                        !- Hour 18
    0.3,                      !- Hour 19
    0.3,                      !- Hour 20
    0.2,                      !- Hour 21
    0.2,                      !- Hour 22
    0.1,                      !- Hour 23
    0.1;                      !- Hour 24

Schedule:Day:Hourly,
    B_Off_D_Plg_WE,           !- Name
    Fraction,                 !- Schedule Type Limits Name
    0.1,                      !- Hour 1
    0.1,                      !- Hour 2
    0.1,                      !- Hour 3
    0.1,                      !- Hour 4
    0.1,                      !- Hour 5
    0.1,                      !- Hour 6
    0.1,                      !- Hour 7
    0.1,                      !- Hour 8
    0.1,                      !- Hour 9
    0.1,                      !- Hour 10
    0.1,                      !- Hour 11
    0.1,                      !- Hour 12
    0.1,                      !- Hour 13
    0.1,                      !- Hour 14
    0.1,                      !- Hour 15
    0.1,                      !- Hour 16
    0.1,                      !- Hour 17
    0.1,                      !- Hour 18
    0.1,                      !- Hour 19
    0.1,                      !- Hour 20
    0.1,                      !- Hour 21
    0.1,                      !- Hour 22
    0.1,                      !- Hour 23
    0.1;                      !- Hour 24

Schedule:Week:Daily,
    B_Off_W_Occ,              !- Name
    B_Off_D_Occ_WE,           !- Sunday ScheduleDay Name
    B_Off_D_Occ_WD,           !- Monday ScheduleDay Name
    B_Off_D_Occ_WD,           !- Tuesday ScheduleDay Name
    B_Off_D_Occ_WD,           !- Wednesday ScheduleDay Name
    B_Off_D_Occ_WD,           !- Thursday ScheduleDay Name
    B_Off_D_Occ_WD,           !- Friday ScheduleDay Name
    B_Off_D_Occ_WE,           !- Saturday ScheduleDay Name
    B_Off_D_Occ_WE,           !- Holiday ScheduleDay Name
    B_Off_D_Occ_WD,           !- SummerDesignDay ScheduleDay Name
    B_Off_D_Occ_WD,           !- WinterDesignDay ScheduleDay Name
    B_Off_D_Occ_WD,           !- CustomDay1 ScheduleDay Name
    B_Off_D_Occ_WD;           !- CustomDay2 ScheduleDay Name

Schedule:Week:Daily,
    B_Off_W_Het,              !- Name
    B_Off_D_Het_WE,           !- Sunday ScheduleDay Name
    B_Off_D_Het_WD,           !- Monday ScheduleDay Name
    B_Off_D_Het_WD,           !- Tuesday ScheduleDay Name
    B_Off_D_Het_WD,           !- Wednesday ScheduleDay Name
    B_Off_D_Het_WD,           !- Thursday ScheduleDay Name
    B_Off_D_Het_WD,           !- Friday ScheduleDay Name
    B_Off_D_Het_WE,           !- Saturday ScheduleDay Name
    B_Off_D_Het_WE,           !- Holiday ScheduleDay Name
    B_Off_D_Het_WD,           !- SummerDesignDay ScheduleDay Name
    B_Off_D_Het_WD,           !- WinterDesignDay ScheduleDay Name
    B_Off_D_Het_WD,           !- CustomDay1 ScheduleDay Name
    B_Off_D_Het_WD;           !- CustomDay2 ScheduleDay Name

Schedule:Week:Daily,
    B_Off_W_Off,              !- Name
    B_Off_D_Off,              !- Sunday ScheduleDay Name
    B_Off_D_Off,              !- Monday ScheduleDay Name
    B_Off_D_Off,              !- Tuesday ScheduleDay Name
    B_Off_D_Off,              !- Wednesday ScheduleDay Name
    B_Off_D_Off,              !- Thursday ScheduleDay Name
    B_Off_D_Off,              !- Friday ScheduleDay Name
    B_Off_D_Off,              !- Saturday ScheduleDay Name
    B_Off_D_Off,              !- Holiday ScheduleDay Name
    B_Off_D_Off,              !- SummerDesignDay ScheduleDay Name
    B_Off_D_Off,              !- WinterDesignDay ScheduleDay Name
    B_Off_D_Off,              !- CustomDay1 ScheduleDay Name
    B_Off_D_Off;              !- CustomDay2 ScheduleDay Name

Schedule:Week:Daily,
    B_Off_W_Col,              !- Name
    B_Off_D_Col_WE,           !- Sunday ScheduleDay Name
    B_Off_D_Col_WD,           !- Monday ScheduleDay Name
    B_Off_D_Col_WD,           !- Tuesday ScheduleDay Name
    B_Off_D_Col_WD,           !- Wednesday ScheduleDay Name
    B_Off_D_Col_WD,           !- Thursday ScheduleDay Name
    B_Off_D_Col_WD,           !- Friday ScheduleDay Name
    B_Off_D_Col_WE,           !- Saturday ScheduleDay Name
    B_Off_D_Col_WE,           !- Holiday ScheduleDay Name
    B_Off_D_Col_WD,           !- SummerDesignDay ScheduleDay Name
    B_Off_D_Col_WD,           !- WinterDesignDay ScheduleDay Name
    B_Off_D_Col_WD,           !- CustomDay1 ScheduleDay Name
    B_Off_D_Col_WD;           !- CustomDay2 ScheduleDay Name

Schedule:Week:Daily,
    B_Off_W_Dhw,              !- Name
    B_Off_D_Dhw_WE,           !- Sunday ScheduleDay Name
    B_Off_D_Dhw_WD,           !- Monday ScheduleDay Name
    B_Off_D_Dhw_WD,           !- Tuesday ScheduleDay Name
    B_Off_D_Dhw_WD,           !- Wednesday ScheduleDay Name
    B_Off_D_Dhw_WD,           !- Thursday ScheduleDay Name
    B_Off_D_Dhw_WD,           !- Friday ScheduleDay Name
    B_Off_D_Dhw_WE,           !- Saturday ScheduleDay Name
    B_Off_D_Dhw_WE,           !- Holiday ScheduleDay Name
    B_Off_D_Dhw_WD,           !- SummerDesignDay ScheduleDay Name
    B_Off_D_Dhw_WD,           !- WinterDesignDay ScheduleDay Name
    B_Off_D_Dhw_WD,           !- CustomDay1 ScheduleDay Name
    B_Off_D_Dhw_WD;           !- CustomDay2 ScheduleDay Name

Schedule:Week:Daily,
    B_Off_W_Lgt,              !- Name
    B_Off_D_Lgt_WE,           !- Sunday ScheduleDay Name
    B_Off_D_Lgt_WD,           !- Monday ScheduleDay Name
    B_Off_D_Lgt_WD,           !- Tuesday ScheduleDay Name
    B_Off_D_Lgt_WD,           !- Wednesday ScheduleDay Name
    B_Off_D_Lgt_WD,           !- Thursday ScheduleDay Name
    B_Off_D_Lgt_WD,           !- Friday ScheduleDay Name
    B_Off_D_Lgt_WE,           !- Saturday ScheduleDay Name
    B_Off_D_Lgt_WE,           !- Holiday ScheduleDay Name
    B_Off_D_Lgt_WD,           !- SummerDesignDay ScheduleDay Name
    B_Off_D_Lgt_WD,           !- WinterDesignDay ScheduleDay Name
    B_Off_D_Lgt_WD,           !- CustomDay1 ScheduleDay Name
    B_Off_D_Lgt_WD;           !- CustomDay2 ScheduleDay Name

Schedule:Week:Daily,
    B_Off_W_Plg,              !- Name
    B_Off_D_Plg_WE,           !- Sunday ScheduleDay Name
    B_Off_D_Plg_WD,           !- Monday ScheduleDay Name
    B_Off_D_Plg_WD,           !- Tuesday ScheduleDay Name
    B_Off_D_Plg_WD,           !- Wednesday ScheduleDay Name
    B_Off_D_Plg_WD,           !- Thursday ScheduleDay Name
    B_Off_D_Plg_WD,           !- Friday ScheduleDay Name
    B_Off_D_Plg_WE,           !- Saturday ScheduleDay Name
    B_Off_D_Plg_WE,           !- Holiday ScheduleDay Name
    B_Off_D_Plg_WD,           !- SummerDesignDay ScheduleDay Name
    B_Off_D_Plg_WD,           !- WinterDesignDay ScheduleDay Name
    B_Off_D_Plg_WD,           !- CustomDay1 ScheduleDay Name
    B_Off_D_Plg_WD;           !- CustomDay2 ScheduleDay Name

Schedule:Year,
    B_Off_Y_Occ,              !- Name
    Fraction,                 !- Schedule Type Limits Name
    B_Off_W_Occ,              !- ScheduleWeek Name 1
    1,                        !- Start Month 1
    1,                        !- Start Day 1
    12,                       !- End Month 1
    31;                       !- End Day 1

Schedule:Year,
    B_Off_Y_Het,              !- Name
    Fraction,                 !- Schedule Type Limits Name
    B_Off_W_Het,              !- ScheduleWeek Name 1
    1,                        !- Start Month 1
    1,                        !- Start Day 1
    4,                        !- End Month 1
    30,                       !- End Day 1
    B_Off_W_Off,              !- ScheduleWeek Name 2
    5,                        !- Start Month 2
    1,                        !- Start Day 2
    9,                        !- End Month 2
    30,                       !- End Day 2
    B_Off_W_Het,              !- ScheduleWeek Name 3
    10,                       !- Start Month 3
    1,                        !- Start Day 3
    12,                       !- End Month 3
    31;                       !- End Day 3

Schedule:Year,
    B_Off_Y_Col,              !- Name
    Fraction,                 !- Schedule Type Limits Name
    B_Off_W_Off,              !- ScheduleWeek Name 1
    1,                        !- Start Month 1
    1,                        !- Start Day 1
    3,                        !- End Month 1
    31,                       !- End Day 1
    B_Off_W_Col,              !- ScheduleWeek Name 2
    4,                        !- Start Month 2
    1,                        !- Start Day 2
    9,                        !- End Month 2
    30,                       !- End Day 2
    B_Off_W_Off,              !- ScheduleWeek Name 3
    10,                       !- Start Month 3
    1,                        !- Start Day 3
    12,                       !- End Month 3
    31;                       !- End Day 3

Schedule:Year,
    B_Off_Y_Dhw,              !- Name
    Fraction,                 !- Schedule Type Limits Name
    B_Off_W_Dhw,              !- ScheduleWeek Name 1
    1,                        !- Start Month 1
    1,                        !- Start Day 1
    12,                       !- End Month 1
    31;                       !- End Day 1

Schedule:Year,
    B_Off_Y_Lgt,              !- Name
    Fraction,                 !- Schedule Type Limits Name
    B_Off_W_Lgt,              !- ScheduleWeek Name 1
    1,                        !- Start Month 1
    1,                        !- Start Day 1
    12,                       !- End Month 1
    31;                       !- End Day 1

Schedule:Year,
    B_Off_Y_Plg,              !- Name
    Fraction,                 !- Schedule Type Limits Name
    B_Off_W_Plg,              !- ScheduleWeek Name 1
    1,                        !- Start Month 1
    1,                        !- Start Day 1
    12,                       !- End Month 1
    31;                       !- End Day 1

Schedule:Constant,
    On,                       !- Name
    On/Off,                   !- Schedule Type Limits Name
    1;                        !- Hourly Value

Schedule:Constant,
    Off,                      !- Name
    On/Off,                   !- Schedule Type Limits Name
    0;                        !- Hourly Value

Schedule:Constant,
    PerimPeopleActivity,      !- Name
    Any Number,               !- Schedule Type Limits Name
    125.28;                   !- Hourly Value

Schedule:Constant,
    PerimAirVelocity,         !- Name
    Any Number,               !- Schedule Type Limits Name
    0.2;                      !- Hourly Value

Schedule:Constant,
    PerimWorkEfficiency,      !- Name
    Any Number,               !- Schedule Type Limits Name
    0;                        !- Hourly Value

Schedule:Constant,
    PerimHeating_SP_Sch,      !- Name
    Temperature,              !- Schedule Type Limits Name
    20;                       !- Hourly Value

Schedule:Constant,
    PerimCooling_SP_Sch,      !- Name
    Temperature,              !- Schedule Type Limits Name
    24;                       !- Hourly Value

Schedule:Constant,
    PerimZoneControlTypeSched,    !- Name
    Any Number,               !- Schedule Type Limits Name
    4;                        !- Hourly Value

Schedule:Constant,
    PerimHumidMin,            !- Name
    Any Number,               !- Schedule Type Limits Name
    20;                       !- Hourly Value

Schedule:Constant,
    PerimHumidMax,            !- Name
    Any Number,               !- Schedule Type Limits Name
    80;                       !- Hourly Value

Schedule:Constant,
    DHW Supply Temperature Perim,    !- Name
    Temperature,              !- Schedule Type Limits Name
    55;                       !- Hourly Value

Schedule:Constant,
    DHW Mains Temperature Perim,    !- Name
    Temperature,              !- Schedule Type Limits Name