! ----  This file was generated with Archsim v.4.0.2.17

  Version,9.2;

  RunPeriod,
    ArchSim,                 !- Name
    1,                       !- Begin Month
    1,                       !- Begin Day of Month
    ,                        !- Begin Year
    12,                      !- End Month
    31,                      !- End Day of Month
    ,                        !- End Year
    ,                        !- Day of Week for Start Day
    No,                      !- Use Weather File Holidays and Special Days
    No,                      !- Use Weather File Daylight Saving Period
    Yes,                     !- Apply Weekend Holiday Rule
    Yes,                     !- Use Weather File Rain Indicators
    Yes,                     !- Use Weather File Snow Indicators
    ;                        !- Treat Weather as Actual

  RunPeriodControl:DaylightSavingTime,
    Last Sunday in March,    !- Start Date
    Last Sunday in October;  !- End Date

  Site:GroundTemperature:BuildingSurface,14,14,14,14,14,14,14,14,14,14,14,14;

  Site:GroundReflectance,0.2,0.2,0.2,0.2,0.2,0.2,0.2,0.2,0.2,0.2,0.2,0.2;

  Site:GroundReflectance:SnowModifier,
    1.0,                     !- Ground Reflected Solar Modifier
    1.0;                     !- Daylighting Ground Reflected Solar Modifier

  SimulationControl,
    No,                      !- Do Zone Sizing Calculation
    No,                      !- Do System Sizing Calculation
    No,                      !- Do Plant Sizing Calculation
    No,                      !- Run Simulation for Sizing Periods
    Yes;                     !- Run Simulation for Weather File Run Periods

  ConvergenceLimits,
    1,                       !- Minimum System Timestep {minutes}
    50;                      !- Maximum HVAC Iterations

  ScheduleTypeLimits,
    Any Number;              !- Name

  ScheduleTypeLimits,
    Fraction,                !- Name
    0.0,                     !- Lower Limit Value
    1.0,                     !- Upper Limit Value
    CONTINUOUS;              !- Numeric Type

  ScheduleTypeLimits,
    Temperature,             !- Name
    -60,                     !- Lower Limit Value
    200,                     !- Upper Limit Value
    CONTINUOUS;              !- Numeric Type

  ScheduleTypeLimits,
    Control GasType,         !- Name
    0,                       !- Lower Limit Value
    4,                       !- Upper Limit Value
    DISCRETE;                !- Numeric Type

  ScheduleTypeLimits,
    On/Off,                  !- Name
    0,                       !- Lower Limit Value
    1,                       !- Upper Limit Value
    DISCRETE;                !- Numeric Type

  Schedule:Constant,On,On/Off,1;

  Schedule:Constant,Off,On/Off,0;

  GlobalGeometryRules,
    LowerLeftCorner,         !- Starting Vertex Position
    CounterClockWise,        !- Vertex Entry Direction
    Relative;                !- Coordinate System

! -------------------------ERL SENSORS--------------------------

  EnergyManagementSystem:Sensor,
    OutdoorTemp,             !- Name
    Environment,             !- Output:Variable or Output:Meter Index Key Name
    Site Outdoor Air Drybulb Temperature;  !- Output:Variable or Output:Meter Name

  EnergyManagementSystem:Sensor,
    OutdoorRelHumid,         !- Name
    Environment,             !- Output:Variable or Output:Meter Index Key Name
    Site Outdoor Air Relative Humidity;  !- Output:Variable or Output:Meter Name

  Output:EnergyManagementSystem,
    Verbose,                 !- Actuator Availability Dictionary Reporting
    Verbose,                 !- Internal Variable Availability Dictionary Reporting
    Verbose;                 !- EMS Runtime Language Debug Output Level

  ShadowCalculation,
    AverageOverDaysInFrequency,  !- Calculation Method
    20,                      !- Calculation Frequency
    15000,                   !- Maximum Figures in Shadow Overlap Calculations
    SutherlandHodgman,       !- Polygon Clipping Algorithm
    SimpleSkyDiffuseModeling;!- Sky Diffuse Modeling Algorithm

  Building,
    Building,                !- Name
    0,                       !- North Axis {deg}
    Suburbs,                 !- Terrain
    .04,                     !- Loads Convergence Tolerance Value
    .4,                      !- Temperature Convergence Tolerance Value {deltaC}
    FullExterior,            !- Solar Distribution
    25,                      !- Maximum Number of Warmup Days
    ;                        !- Minimum Number of Warmup Days

  HeatBalanceAlgorithm,ConductionTransferFunction,200,0.1,1000;

  Timestep,4;

  SurfaceConvectionAlgorithm:Inside,TARP;

  SurfaceConvectionAlgorithm:Outside,DOE-2;

! ------------ CONSTRUCTIONS
! B_Ret_Thm_0 GasType: Facade

  Construction,
    B_Ret_Thm_0,             !- Name
    B_Gypsum_Plaster_0.02_B_Ret_Thm_0,  !- Outside Layer
    B_Softwood_General_0.02_B_Ret_Thm_0,  !- Layer 2
    B_Gypsum_Plaster_0.02_B_Ret_Thm_0;  !- Layer 3

  Construction,
    B_Ret_Thm_0_FLIPPED,     !- Name
    B_Gypsum_Plaster_0.02_B_Ret_Thm_0,  !- Outside Layer
    B_Softwood_General_0.02_B_Ret_Thm_0,  !- Layer 2
    B_Gypsum_Plaster_0.02_B_Ret_Thm_0;  !- Layer 3

! Materials
!- Material: B_Gypsum_Plaster GasType: No Category

  Material,
    B_Gypsum_Plaster_0.02_B_Ret_Thm_0,  !- Name
    Rough,                   !- Roughness
    0.02,                    !- Thickness {m}
    0.42,                    !- Conductivity {W/m-K}
    900,                     !- Density {kg/m3}
    840,                     !- Specific Heat {J/kg-K}
    0.9,                     !- Thermal Absorptance
    0.7,                     !- Solar Absorptance
    0.7;                     !- Visible Absorptance

!- Material: B_Softwood_General GasType: No Category

  Material,
    B_Softwood_General_0.02_B_Ret_Thm_0,  !- Name
    Rough,                   !- Roughness
    0.02,                    !- Thickness {m}
    0.13,                    !- Conductivity {W/m-K}
    496,                     !- Density {kg/m3}
    1630,                    !- Specific Heat {J/kg-K}
    0.9,                     !- Thermal Absorptance
    0.6,                     !- Solar Absorptance
    0.6;                     !- Visible Absorptance

! B_Ret_Fac_0 GasType: Facade

  Construction,
    B_Ret_Fac_0,             !- Name
    B_Clay_Brick_H_0.06_B_Ret_Fac_0,  !- Outside Layer
    B_XPS_Board_0.02_B_Ret_Fac_0,  !- Layer 2
    B_Concrete_Block_H_0.15_B_Ret_Fac_0,  !- Layer 3
    B_Fiberglass_Batts_0.05_B_Ret_Fac_0,  !- Layer 4
    B_Gypsum_Board_0.015_B_Ret_Fac_0;  !- Layer 5

  Construction,
    B_Ret_Fac_0_FLIPPED,     !- Name
    B_Gypsum_Board_0.015_B_Ret_Fac_0,  !- Outside Layer
    B_Fiberglass_Batts_0.05_B_Ret_Fac_0,  !- Layer 2
    B_Concrete_Block_H_0.15_B_Ret_Fac_0,  !- Layer 3
    B_XPS_Board_0.02_B_Ret_Fac_0,  !- Layer 4
    B_Clay_Brick_H_0.06_B_Ret_Fac_0;  !- Layer 5

! Materials
!- Material: B_Clay_Brick_H GasType: No Category

  Material,
    B_Clay_Brick_H_0.06_B_Ret_Fac_0,  !- Name
    Rough,                   !- Roughness
    0.06,                    !- Thickness {m}
    0.41,                    !- Conductivity {W/m-K}
    1000,                    !- Density {kg/m3}
    920,                     !- Specific Heat {J/kg-K}
    0.9,                     !- Thermal Absorptance
    0.5,                     !- Solar Absorptance
    0.5;                     !- Visible Absorptance

!- Material: B_XPS_Board GasType: No Category

  Material,
    B_XPS_Board_0.02_B_Ret_Fac_0,  !- Name
    Rough,                   !- Roughness
    0.02,                    !- Thickness {m}
    0.037,                   !- Conductivity {W/m-K}
    40,                      !- Density {kg/m3}
    1200,                    !- Specific Heat {J/kg-K}
    0.6,                     !- Thermal Absorptance
    0.6,                     !- Solar Absorptance
    0.6;                     !- Visible Absorptance

!- Material: B_Concrete_Block_H GasType: No Category

  Material,
    B_Concrete_Block_H_0.15_B_Ret_Fac_0,  !- Name
    Rough,                   !- Roughness
    0.15,                    !- Thickness {m}
    1.25,                    !- Conductivity {W/m-K}
    880,                     !- Density {kg/m3}
    840,                     !- Specific Heat {J/kg-K}
    0.9,                     !- Thermal Absorptance
    0.7,                     !- Solar Absorptance
    0.7;                     !- Visible Absorptance

!- Material: B_Fiberglass_Batts GasType: No Category

  Material,
    B_Fiberglass_Batts_0.05_B_Ret_Fac_0,  !- Name
    Rough,                   !- Roughness
    0.05,                    !- Thickness {m}
    0.043,                   !- Conductivity {W/m-K}
    12,                      !- Density {kg/m3}
    840,                     !- Specific Heat {J/kg-K}
    0.9,                     !- Thermal Absorptance
    0.6,                     !- Solar Absorptance
    0.6;                     !- Visible Absorptance

!- Material: B_Gypsum_Board GasType: No Category

  Material,
    B_Gypsum_Board_0.015_B_Ret_Fac_0,  !- Name
    Rough,                   !- Roughness
    0.015,                   !- Thickness {m}
    0.16,                    !- Conductivity {W/m-K}
    950,                     !- Density {kg/m3}
    840,                     !- Specific Heat {J/kg-K}
    0.9,                     !- Thermal Absorptance
    0.6,                     !- Solar Absorptance
    0.6;                     !- Visible Absorptance

! B_Ret_Par_0 GasType: Partition

  Construction,
    B_Ret_Par_0,             !- Name
    B_Gypsum_Plaster_0.02_B_Ret_Par_0,  !- Outside Layer
    B_Softwood_General_0.02_B_Ret_Par_0,  !- Layer 2
    B_Gypsum_Plaster_0.02_B_Ret_Par_0;  !- Layer 3

  Construction,
    B_Ret_Par_0_FLIPPED,     !- Name
    B_Gypsum_Plaster_0.02_B_Ret_Par_0,  !- Outside Layer
    B_Softwood_General_0.02_B_Ret_Par_0,  !- Layer 2
    B_Gypsum_Plaster_0.02_B_Ret_Par_0;  !- Layer 3

! Materials
!- Material: B_Gypsum_Plaster GasType: No Category

  Material,
    B_Gypsum_Plaster_0.02_B_Ret_Par_0,  !- Name
    Rough,                   !- Roughness
    0.02,                    !- Thickness {m}
    0.42,                    !- Conductivity {W/m-K}
    900,                     !- Density {kg/m3}
    840,                     !- Specific Heat {J/kg-K}
    0.9,                     !- Thermal Absorptance
    0.7,                     !- Solar Absorptance
    0.7;                     !- Visible Absorptance

!- Material: B_Softwood_General GasType: No Category

  Material,
    B_Softwood_General_0.02_B_Ret_Par_0,  !- Name
    Rough,                   !- Roughness
    0.02,                    !- Thickness {m}
    0.13,                    !- Conductivity {W/m-K}
    496,                     !- Density {kg/m3}
    1630,                    !- Specific Heat {J/kg-K}
    0.9,                     !- Thermal Absorptance
    0.6,                     !- Solar Absorptance
    0.6;                     !- Visible Absorptance

! B_Ret_Inf_0 GasType: InteriorFloor

  Construction,
    B_Ret_Inf_0,             !- Name
    B_Urethane_Carpet_0.02_B_Ret_Inf_0,  !- Outside Layer
    B_Cement_Mortar_0.02_B_Ret_Inf_0,  !- Layer 2
    B_Concrete_RC_Dense_0.15_B_Ret_Inf_0,  !- Layer 3
    B_Air_Floor_15cm_0.15_B_Ret_Inf_0,  !- Layer 4
    B_Gypsum_Board_0.02_B_Ret_Inf_0;  !- Layer 5

  Construction,
    B_Ret_Inf_0_FLIPPED,     !- Name
    B_Gypsum_Board_0.02_B_Ret_Inf_0,  !- Outside Layer
    B_Air_Floor_15cm_0.15_B_Ret_Inf_0,  !- Layer 2
    B_Concrete_RC_Dense_0.15_B_Ret_Inf_0,  !- Layer 3
    B_Cement_Mortar_0.02_B_Ret_Inf_0,  !- Layer 4
    B_Urethane_Carpet_0.02_B_Ret_Inf_0;  !- Layer 5

! Materials
!- Material: B_Urethane_Carpet GasType: No Category

  Material,
    B_Urethane_Carpet_0.02_B_Ret_Inf_0,  !- Name
    Rough,                   !- Roughness
    0.02,                    !- Thickness {m}
    0.045,                   !- Conductivity {W/m-K}
    110,                     !- Density {kg/m3}
    840,                     !- Specific Heat {J/kg-K}
    0.9,                     !- Thermal Absorptance
    0.7,                     !- Solar Absorptance
    0.7;                     !- Visible Absorptance

!- Material: B_Cement_Mortar GasType: No Category

  Material,
    B_Cement_Mortar_0.02_B_Ret_Inf_0,  !- Name
    Rough,                   !- Roughness
    0.02,                    !- Thickness {m}
    0.8,                     !- Conductivity {W/m-K}
    1900,                    !- Density {kg/m3}
    840,                     !- Specific Heat {J/kg-K}
    0.9,                     !- Thermal Absorptance
    0.8,                     !- Solar Absorptance
    0.8;                     !- Visible Absorptance

!- Material: B_Concrete_RC_Dense GasType: No Category

  Material,
    B_Concrete_RC_Dense_0.15_B_Ret_Inf_0,  !- Name
    Rough,                   !- Roughness
    0.15,                    !- Thickness {m}
    1.75,                    !- Conductivity {W/m-K}
    2400,                    !- Density {kg/m3}
    840,                     !- Specific Heat {J/kg-K}
    0.9,                     !- Thermal Absorptance
    0.7,                     !- Solar Absorptance
    0.7;                     !- Visible Absorptance

!- Material: B_Air_Floor_15cm GasType: No Category

  Material,
    B_Air_Floor_15cm_0.15_B_Ret_Inf_0,  !- Name
    Rough,                   !- Roughness
    0.15,                    !- Thickness {m}
    0.7,                     !- Conductivity {W/m-K}
    1.2,                     !- Density {kg/m3}
    1000,                    !- Specific Heat {J/kg-K}
    0.01,                    !- Thermal Absorptance
    0.7,                     !- Solar Absorptance
    0.7;                     !- Visible Absorptance

!- Material: B_Gypsum_Board GasType: No Category

  Material,
    B_Gypsum_Board_0.02_B_Ret_Inf_0,  !- Name
    Rough,                   !- Roughness
    0.02,                    !- Thickness {m}
    0.16,                    !- Conductivity {W/m-K}
    950,                     !- Density {kg/m3}
    840,                     !- Specific Heat {J/kg-K}
    0.9,                     !- Thermal Absorptance
    0.6,                     !- Solar Absorptance
    0.6;                     !- Visible Absorptance

! B_Ret_Gro_0 GasType: GroundFloor

  Construction,
    B_Ret_Gro_0,             !- Name
    B_XPS_Board_0.02_B_Ret_Gro_0,  !- Outside Layer
    B_Concrete_RC_Dense_0.15_B_Ret_Gro_0,  !- Layer 2
    B_Concrete_MC_Light_0.04_B_Ret_Gro_0,  !- Layer 3
    B_Cement_Mortar_0.03_B_Ret_Gro_0,  !- Layer 4
    B_Ceramic_Tile_0.02_B_Ret_Gro_0;  !- Layer 5

  Construction,
    B_Ret_Gro_0_FLIPPED,     !- Name
    B_Ceramic_Tile_0.02_B_Ret_Gro_0,  !- Outside Layer
    B_Cement_Mortar_0.03_B_Ret_Gro_0,  !- Layer 2
    B_Concrete_MC_Light_0.04_B_Ret_Gro_0,  !- Layer 3
    B_Concrete_RC_Dense_0.15_B_Ret_Gro_0,  !- Layer 4
    B_XPS_Board_0.02_B_Ret_Gro_0;  !- Layer 5

! Materials
!- Material: B_XPS_Board GasType: No Category

  Material,
    B_XPS_Board_0.02_B_Ret_Gro_0,  !- Name
    Rough,                   !- Roughness
    0.02,                    !- Thickness {m}
    0.037,                   !- Conductivity {W/m-K}
    40,                      !- Density {kg/m3}
    1200,                    !- Specific Heat {J/kg-K}
    0.6,                     !- Thermal Absorptance
    0.6,                     !- Solar Absorptance
    0.6;                     !- Visible Absorptance

!- Material: B_Concrete_RC_Dense GasType: No Category

  Material,
    B_Concrete_RC_Dense_0.15_B_Ret_Gro_0,  !- Name
    Rough,                   !- Roughness
    0.15,                    !- Thickness {m}
    1.75,                    !- Conductivity {W/m-K}
    2400,                    !- Density {kg/m3}
    840,                     !- Specific Heat {J/kg-K}
    0.9,                     !- Thermal Absorptance
    0.7,                     !- Solar Absorptance
    0.7;                     !- Visible Absorptance

!- Material: B_Concrete_MC_Light GasType: No Category

  Material,
    B_Concrete_MC_Light_0.04_B_Ret_Gro_0,  !- Name
    Rough,                   !- Roughness
    0.04,                    !- Thickness {m}
    1.65,                    !- Conductivity {W/m-K}
    2100,                    !- Density {kg/m3}
    1040,                    !- Specific Heat {J/kg-K}
    0.9,                     !- Thermal Absorptance
    0.7,                     !- Solar Absorptance
    0.7;                     !- Visible Absorptance

!- Material: B_Cement_Mortar GasType: No Category

  Material,
    B_Cement_Mortar_0.03_B_Ret_Gro_0,  !- Name
    Rough,                   !- Roughness
    0.03,                    !- Thickness {m}
    0.8,                     !- Conductivity {W/m-K}
    1900,                    !- Density {kg/m3}
    840,                     !- Specific Heat {J/kg-K}
    0.9,                     !- Thermal Absorptance
    0.8,                     !- Solar Absorptance
    0.8;                     !- Visible Absorptance

!- Material: B_Ceramic_Tile GasType: No Category

  Material,
    B_Ceramic_Tile_0.02_B_Ret_Gro_0,  !- Name
    Rough,                   !- Roughness
    0.02,                    !- Thickness {m}
    0.8,                     !- Conductivity {W/m-K}
    2243,                    !- Density {kg/m3}
    840,                     !- Specific Heat {J/kg-K}
    0.9,                     !- Thermal Absorptance
    0.4,                     !- Solar Absorptance
    0.4;                     !- Visible Absorptance

! B_Ret_Rof_0 GasType: Roof

  Construction,
    B_Ret_Rof_0,             !- Name
    B_XPS_Board_0.1_B_Ret_Rof_0,  !- Outside Layer
    B_Concrete_MC_Light_0.15_B_Ret_Rof_0,  !- Layer 2
    B_Concrete_RC_Dense_0.2_B_Ret_Rof_0,  !- Layer 3
    B_Air_Floor_15cm_0.15_B_Ret_Rof_0,  !- Layer 4
    B_Gypsum_Board_0.02_B_Ret_Rof_0;  !- Layer 5

  Construction,
    B_Ret_Rof_0_FLIPPED,     !- Name
    B_Gypsum_Board_0.02_B_Ret_Rof_0,  !- Outside Layer
    B_Air_Floor_15cm_0.15_B_Ret_Rof_0,  !- Layer 2
    B_Concrete_RC_Dense_0.2_B_Ret_Rof_0,  !- Layer 3
    B_Concrete_MC_Light_0.15_B_Ret_Rof_0,  !- Layer 4
    B_XPS_Board_0.1_B_Ret_Rof_0;  !- Layer 5

! Materials
!- Material: B_XPS_Board GasType: No Category

  Material,
    B_XPS_Board_0.1_B_Ret_Rof_0,  !- Name
    Rough,                   !- Roughness
    0.1,                     !- Thickness {m}
    0.037,                   !- Conductivity {W/m-K}
    40,                      !- Density {kg/m3}
    1200,                    !- Specific Heat {J/kg-K}
    0.6,                     !- Thermal Absorptance
    0.6,                     !- Solar Absorptance
    0.6;                     !- Visible Absorptance

!- Material: B_Concrete_MC_Light GasType: No Category

  Material,
    B_Concrete_MC_Light_0.15_B_Ret_Rof_0,  !- Name
    Rough,                   !- Roughness
    0.15,                    !- Thickness {m}
    1.65,                    !- Conductivity {W/m-K}
    2100,                    !- Density {kg/m3}
    1040,                    !- Specific Heat {J/kg-K}
    0.9,                     !- Thermal Absorptance
    0.7,                     !- Solar Absorptance
    0.7;                     !- Visible Absorptance

!- Material: B_Concrete_RC_Dense GasType: No Category

  Material,
    B_Concrete_RC_Dense_0.2_B_Ret_Rof_0,  !- Name
    Rough,                   !- Roughness
    0.2,                     !- Thickness {m}
    1.75,                    !- Conductivity {W/m-K}
    2400,                    !- Density {kg/m3}
    840,                     !- Specific Heat {J/kg-K}
    0.9,                     !- Thermal Absorptance
    0.7,                     !- Solar Absorptance
    0.7;                     !- Visible Absorptance

!- Material: B_Air_Floor_15cm GasType: No Category

  Material,
    B_Air_Floor_15cm_0.15_B_Ret_Rof_0,  !- Name
    Rough,                   !- Roughness
    0.15,                    !- Thickness {m}
    0.7,                     !- Conductivity {W/m-K}
    1.2,                     !- Density {kg/m3}
    1000,                    !- Specific Heat {J/kg-K}
    0.01,                    !- Thermal Absorptance
    0.7,                     !- Solar Absorptance
    0.7;                     !- Visible Absorptance

!- Material: B_Gypsum_Board GasType: No Category

  Material,
    B_Gypsum_Board_0.02_B_Ret_Rof_0,  !- Name
    Rough,                   !- Roughness
    0.02,                    !- Thickness {m}
    0.16,                    !- Conductivity {W/m-K}
    950,                     !- Density {kg/m3}
    840,                     !- Specific Heat {J/kg-K}
    0.9,                     !- Thermal Absorptance
    0.6,                     !- Solar Absorptance
    0.6;                     !- Visible Absorptance

! ------------ GLAZING
! B_Dbl_Air_Cl GasType: Double

  Construction,
    B_Dbl_Air_Cl,            !- Name
    B_Glass_Clear_3_0.003_B_Dbl_Air_Cl,  !- Outside Layer
    AIR_0.006_B_Dbl_Air_Cl,  !- Layer 2
    B_Glass_Clear_3_0.003_B_Dbl_Air_Cl;  !- Layer 3

  Construction,
    B_Dbl_Air_Cl_FLIPPED,    !- Name
    B_Glass_Clear_3_0.003_B_Dbl_Air_Cl,  !- Outside Layer
    AIR_0.006_B_Dbl_Air_Cl,  !- Layer 2
    B_Glass_Clear_3_0.003_B_Dbl_Air_Cl;  !- Layer 3

! Materials

  WindowMaterial:Glazing,
    B_Glass_Clear_3_0.003_B_Dbl_Air_Cl,  !- Name
    SpectralAverage,         !- Optical Data Type
    SpectralAverage,         !- Window Glass Spectral Data Set Name
    0.003,                   !- Thickness {m}
    0.83,                    !- Solar Transmittance at Normal Incidence
    0.07,                    !- Front Side Solar Reflectance at Normal Incidence
    0.07,                    !- Back Side Solar Reflectance at Normal Incidence
    0.89,                    !- Visible Transmittance at Normal Incidence
    0.08,                    !- Front Side Visible Reflectance at Normal Incidence
    0.08,                    !- Back Side Visible Reflectance at Normal Incidence
    0,                       !- Infrared Transmittance at Normal Incidence
    0.84,                    !- Front Side Infrared Hemispherical Emissivity
    0.84,                    !- Back Side Infrared Hemispherical Emissivity
    0.9,                     !- Conductivity {W/m-K}
    1;                       !- Dirt Correction Factor for Solar and Visible Transmittance

! Gas: AIR GasType: AIR

  WindowMaterial:Gas,
    AIR_0.006_B_Dbl_Air_Cl,  !- Name
    AIR,                     !- Gas Type
    0.006;                   !- Thickness {m}

! ------------ SCHEDULES

  Schedule:Year,
    B_Ret_Y_Occ,             !- Name
    Fraction,                !- Schedule Type Limits Name
    B_Ret_W_Occ,             !- Schedule:Week Name 1
    1,                       !- Start Month 1
    1,                       !- Start Day 1
    12,                      !- End Month 1
    31;                      !- End Day 1

  Schedule:Year,
    B_Ret_Y_Het,             !- Name
    Fraction,                !- Schedule Type Limits Name
    B_Ret_W_Het,             !- Schedule:Week Name 1
    1,                       !- Start Month 1
    1,                       !- Start Day 1
    4,                       !- End Month 1
    30,                      !- End Day 1
    B_Ret_W_Off,             !- Schedule:Week Name 2
    5,                       !- Start Month 2
    1,                       !- Start Day 2
    9,                       !- End Month 2
    30,                      !- End Day 2
    B_Ret_W_Het,             !- Schedule:Week Name 3
    10,                      !- Start Month 3
    1,                       !- Start Day 3
    12,                      !- End Month 3
    31;                      !- End Day 3

  Schedule:Year,
    B_Ret_Y_Col,             !- Name
    Fraction,                !- Schedule Type Limits Name
    B_Ret_W_Off,             !- Schedule:Week Name 1
    1,                       !- Start Month 1
    1,                       !- Start Day 1
    4,                       !- End Month 1
    30,                      !- End Day 1
    B_Ret_W_Col,             !- Schedule:Week Name 2
    5,                       !- Start Month 2
    1,                       !- Start Day 2
    9,                       !- End Month 2
    30,                      !- End Day 2
    B_Ret_W_Off,             !- Schedule:Week Name 3
    10,                      !- Start Month 3
    1,                       !- Start Day 3
    12,                      !- End Month 3
    31;                      !- End Day 3

  Schedule:Year,
    B_Ret_Y_Dhw,             !- Name
    Fraction,                !- Schedule Type Limits Name
    B_Ret_W_Dhw,             !- Schedule:Week Name 1
    1,                       !- Start Month 1
    1,                       !- Start Day 1
    12,                      !- End Month 1
    31;                      !- End Day 1

  Schedule:Year,
    B_Ret_Y_Plg,             !- Name
    Fraction,                !- Schedule Type Limits Name
    B_Ret_W_Plg,             !- Schedule:Week Name 1
    1,                       !- Start Month 1
    1,                       !- Start Day 1
    12,                      !- End Month 1
    31;                      !- End Day 1

  Schedule:Week:Daily,
    B_Ret_W_Occ,             !- Name
    B_Ret_D_Occ_WE,          !- Sunday Schedule:Day Name
    B_Ret_D_Occ_WD,          !- Monday Schedule:Day Name
    B_Ret_D_Occ_WD,          !- Tuesday Schedule:Day Name
    B_Ret_D_Occ_WD,          !- Wednesday Schedule:Day Name
    B_Ret_D_Occ_WD,          !- Thursday Schedule:Day Name
    B_Ret_D_Occ_WD,          !- Friday Schedule:Day Name
    B_Ret_D_Occ_WD,          !- Saturday Schedule:Day Name
    B_Ret_D_Occ_WE,          !- Holiday Schedule:Day Name
    B_Ret_D_Occ_WD,          !- SummerDesignDay Schedule:Day Name
    B_Ret_D_Occ_WD,          !- WinterDesignDay Schedule:Day Name
    B_Ret_D_Occ_WD,          !- CustomDay1 Schedule:Day Name
    B_Ret_D_Occ_WD;          !- CustomDay2 Schedule:Day Name

  Schedule:Week:Daily,
    B_Ret_W_Het,             !- Name
    B_Ret_D_Het_WE,          !- Sunday Schedule:Day Name
    B_Ret_D_Het_WD,          !- Monday Schedule:Day Name
    B_Ret_D_Het_WD,          !- Tuesday Schedule:Day Name
    B_Ret_D_Het_WD,          !- Wednesday Schedule:Day Name
    B_Ret_D_Het_WD,          !- Thursday Schedule:Day Name
    B_Ret_D_Het_WD,          !- Friday Schedule:Day Name
    B_Ret_D_Het_WD,          !- Saturday Schedule:Day Name
    B_Ret_D_Het_WE,          !- Holiday Schedule:Day Name
    B_Ret_D_Het_WD,          !- SummerDesignDay Schedule:Day Name
    B_Ret_D_Het_WD,          !- WinterDesignDay Schedule:Day Name
    B_Ret_D_Het_WD,          !- CustomDay1 Schedule:Day Name
    B_Ret_D_Het_WD;          !- CustomDay2 Schedule:Day Name

  Schedule:Week:Daily,
    B_Ret_W_Off,             !- Name
    B_Ret_D_Off,             !- Sunday Schedule:Day Name
    B_Ret_D_Off,             !- Monday Schedule:Day Name
    B_Ret_D_Off,             !- Tuesday Schedule:Day Name
    B_Ret_D_Off,             !- Wednesday Schedule:Day Name
    B_Ret_D_Off,             !- Thursday Schedule:Day Name
    B_Ret_D_Off,             !- Friday Schedule:Day Name
    B_Ret_D_Off,             !- Saturday Schedule:Day Name
    B_Ret_D_Off,             !- Holiday Schedule:Day Name
    B_Ret_D_Off,             !- SummerDesignDay Schedule:Day Name
    B_Ret_D_Off,             !- WinterDesignDay Schedule:Day Name
    B_Ret_D_Off,             !- CustomDay1 Schedule:Day Name
    B_Ret_D_Off;             !- CustomDay2 Schedule:Day Name

  Schedule:Week:Daily,
    B_Ret_W_Col,             !- Name
    B_Ret_D_Col_WE,          !- Sunday Schedule:Day Name
    B_Ret_D_Col_WD,          !- Monday Schedule:Day Name
    B_Ret_D_Col_WD,          !- Tuesday Schedule:Day Name
    B_Ret_D_Col_WD,          !- Wednesday Schedule:Day Name
    B_Ret_D_Col_WD,          !- Thursday Schedule:Day Name
    B_Ret_D_Col_WD,          !- Friday Schedule:Day Name
    B_Ret_D_Col_WD,          !- Saturday Schedule:Day Name
    B_Ret_D_Col_WE,          !- Holiday Schedule:Day Name
    B_Ret_D_Col_WD,          !- SummerDesignDay Schedule:Day Name
    B_Ret_D_Col_WD,          !- WinterDesignDay Schedule:Day Name
    B_Ret_D_Col_WD,          !- CustomDay1 Schedule:Day Name
    B_Ret_D_Col_WD;          !- CustomDay2 Schedule:Day Name

  Schedule:Week:Daily,
    B_Ret_W_Dhw,             !- Name
    B_Ret_D_Dhw_WE,          !- Sunday Schedule:Day Name
    B_Ret_D_Dhw_WD,          !- Monday Schedule:Day Name
    B_Ret_D_Dhw_WD,          !- Tuesday Schedule:Day Name
    B_Ret_D_Dhw_WD,          !- Wednesday Schedule:Day Name
    B_Ret_D_Dhw_WD,          !- Thursday Schedule:Day Name
    B_Ret_D_Dhw_WD,          !- Friday Schedule:Day Name
    B_Ret_D_Dhw_WD,          !- Saturday Schedule:Day Name
    B_Ret_D_Dhw_WE,          !- Holiday Schedule:Day Name
    B_Ret_D_Dhw_WD,          !- SummerDesignDay Schedule:Day Name
    B_Ret_D_Dhw_WD,          !- WinterDesignDay Schedule:Day Name
    B_Ret_D_Dhw_WD,          !- CustomDay1 Schedule:Day Name
    B_Ret_D_Dhw_WD;          !- CustomDay2 Schedule:Day Name

  Schedule:Week:Daily,
    B_Ret_W_Plg,             !- Name
    B_Ret_D_Plg_WE,          !- Sunday Schedule:Day Name
    B_Ret_D_Plg_WD,          !- Monday Schedule:Day Name
    B_Ret_D_Plg_WD,          !- Tuesday Schedule:Day Name
    B_Ret_D_Plg_WD,          !- Wednesday Schedule:Day Name
    B_Ret_D_Plg_WD,          !- Thursday Schedule:Day Name
    B_Ret_D_Plg_WD,          !- Friday Schedule:Day Name
    B_Ret_D_Plg_WD,          !- Saturday Schedule:Day Name
    B_Ret_D_Plg_WE,          !- Holiday Schedule:Day Name
    B_Ret_D_Plg_WD,          !- SummerDesignDay Schedule:Day Name
    B_Ret_D_Plg_WD,          !- WinterDesignDay Schedule:Day Name
    B_Ret_D_Plg_WD,          !- CustomDay1 Schedule:Day Name
    B_Ret_D_Plg_WD;          !- CustomDay2 Schedule:Day Name

  Schedule:Day:Hourly,
    B_Ret_D_Occ_WD,          !- Name
    Fraction,                !- Schedule Type Limits Name
    0,                       !- Hour 1
    0,                       !- Hour 2
    0,                       !- Hour 3
    0,                       !- Hour 4
    0,                       !- Hour 5