! ----  This file was generated with Climate Studio v.0.4.6.2

  Version,9.2;

  Site:GroundTemperature:BuildingSurface,18,18,18,18,18,18,18,18,18,18,18,18;

!Site:GroundTemperature:FCfactorMethod,18,18,18,18,18,18,18,18,18,18,18,18;

  Site:GroundReflectance,0.2,0.2,0.2,0.2,0.2,0.2,0.2,0.2,0.2,0.2,0.2,0.2;

  Site:GroundReflectance:SnowModifier,
    1.0,                     !- Ground Reflected Solar Modifier
    1.0;                     !- Daylighting Ground Reflected Solar Modifier

  Site:WeatherStation,
    10,                      !- Wind Sensor Height Above Ground {m}
    0.22,                    !- Wind Speed Profile Exponent
    370,                     !- Wind Speed Profile Boundary Layer Thickness {m}
    1.5;                     !- Air Temperature Sensor Height Above Ground {m}

!-   ===========  ALL OBJECTS IN CLASS: RUNPERIOD ===========

  RunPeriod,
    Climate Studio,          !- Name
    1,                       !- Begin Month
    1,                       !- Begin Day of Month
    ,                        !- Begin Year
    12,                      !- End Month
    31,                      !- End Day of Month
    ,                        !- End Year
    Monday,                  !- Day of Week for Start Day
    No,                      !- Use Weather File Holidays and Special Days
    No,                      !- Use Weather File Daylight Saving Period
    No,                      !- Apply Weekend Holiday Rule
    Yes,                     !- Use Weather File Rain Indicators
    Yes,                     !- Use Weather File Snow Indicators
    No;                      !- Treat Weather as Actual

  RunPeriodControl:DaylightSavingTime,
    2nd Sunday in March,     !- Start Date
    1st Sunday in November;  !- End Date

!-   ===========  ALL OBJECTS IN CLASS: SIMULATIONCONTROL ===========

  SimulationControl,
    No,                      !- Do Zone Sizing Calculation
    No,                      !- Do System Sizing Calculation
    No,                      !- Do Plant Sizing Calculation
    No,                      !- Run Simulation for Sizing Periods
    Yes,                     !- Run Simulation for Weather File Run Periods
    No,                      !- Do HVAC Sizing Simulation for Sizing Periods
    2;                       !- Maximum Number of HVAC Sizing Simulation Passes

!-   ===========  ALL OBJECTS IN CLASS: CONVERGENCELIMITS ===========

  ConvergenceLimits,
    0,                       !- Minimum System Timestep {minutes}
    50,                      !- Maximum HVAC Iterations
    3,                       !- Minimum Plant Iterations
    9;                       !- Maximum Plant Iterations

!-   ===========  ALL OBJECTS IN CLASS: SCHEDULETYPELIMITS ===========

  ScheduleTypeLimits,
    Any Number;              !- Name

  ScheduleTypeLimits,
    Fraction,                !- Name
    0.0,                     !- Lower Limit Value
    1.0,                     !- Upper Limit Value
    CONTINUOUS;              !- Numeric Type

  ScheduleTypeLimits,
    Temperature,             !- Name
    -60,                     !- Lower Limit Value
    200,                     !- Upper Limit Value
    CONTINUOUS;              !- Numeric Type

  ScheduleTypeLimits,
    AnyNumber,               !- Name
    -1E11,                   !- Lower Limit Value
    1E11,                    !- Upper Limit Value
    CONTINUOUS;              !- Numeric Type

  ScheduleTypeLimits,
    Control Type,            !- Name
    0,                       !- Lower Limit Value
    4,                       !- Upper Limit Value
    DISCRETE;                !- Numeric Type

  ScheduleTypeLimits,
    On/Off,                  !- Name
    0,                       !- Lower Limit Value
    1,                       !- Upper Limit Value
    DISCRETE;                !- Numeric Type

  Schedule:Constant,On,On/Off,1;

  Schedule:Constant,Off,On/Off,0;

  GlobalGeometryRules,
    LowerLeftCorner,         !- Starting Vertex Position
    CounterClockWise,        !- Vertex Entry Direction
    World;                   !- Coordinate System

! -------------------------ERL SENSORS--------------------------

  EnergyManagementSystem:Sensor,
    OutdoorTemp,             !- Name
    Environment,             !- Output:Variable or Output:Meter Index Key Name
    Site Outdoor Air Drybulb Temperature;  !- Output:Variable or Output:Meter Name

  EnergyManagementSystem:Sensor,
    OutdoorRelHumid,         !- Name
    Environment,             !- Output:Variable or Output:Meter Index Key Name
    Site Outdoor Air Relative Humidity;  !- Output:Variable or Output:Meter Name

  Output:EnergyManagementSystem,
    Verbose,                 !- Actuator Availability Dictionary Reporting
    Verbose,                 !- Internal Variable Availability Dictionary Reporting
    Verbose;                 !- EMS Runtime Language Debug Output Level

!-   ===========  ALL OBJECTS IN CLASS: SHADOWCALCULATION ===========

  ShadowCalculation,
    AverageOverDaysInFrequency,  !- Calculation Method
    20,                      !- Calculation Frequency
    15000,                   !- Maximum Figures in Shadow Overlap Calculations
    SutherlandHodgman,       !- Polygon Clipping Algorithm
    SimpleSkyDiffuseModeling,!- Sky Diffuse Modeling Algorithm
    InternalCalculation,     !- External Shading Calculation Method
    Yes,                     !- Output External Shading Calculation Results
    No,                      !- Disable Self-Shading Within Shading Zone Groups
    No;                      !- Disable Self-Shading From Shading Zone Groups to Other Zones

!-   ===========  ALL OBJECTS IN CLASS: BUILDING ===========

  Building,
    Building,                !- Name
    0,                       !- North Axis {deg}
    Suburbs,                 !- Terrain
    0.04,                    !- Loads Convergence Tolerance Value
    0.4,                     !- Temperature Convergence Tolerance Value {deltaC}
    FullExterior,            !- Solar Distribution
    25,                      !- Maximum Number of Warmup Days
    6;                       !- Minimum Number of Warmup Days

!-   ===========  ALL OBJECTS IN CLASS: HEATBALANCEALGORITHM ===========

  HeatBalanceAlgorithm,ConductionTransferFunction,200,0.1,1000;

  Timestep,4;

  SurfaceConvectionAlgorithm:Inside,TARP;

  SurfaceConvectionAlgorithm:Outside,DOE-2;

! ------------ CONSTRUCTIONS
! defaultConstruction Type: Facade

  Construction,
    defaultConstruction,     !- Name
    defaultMat_0.25_defaultConstruction;  !- Outside Layer

  Construction,
    defaultConstruction_FLIPPED,  !- Name
    defaultMat_0.25_defaultConstruction;  !- Outside Layer

! Materials
!- Material: defaultMat Type: Concrete

  Material,
    defaultMat_0.25_defaultConstruction,  !- Name
    Rough,                   !- Roughness
    0.25,                    !- Thickness {m}
    2.3,                     !- Conductivity {W/m-K}
    2400,                    !- Density {kg/m3}
    840,                     !- Specific Heat {J/kg-K}
    0.9,                     !- Thermal Absorptance
    0.7,                     !- Solar Absorptance
    0.7;                     !- Visible Absorptance

! UVal_0.2_Mass Type: Facade

  Construction,
    UVal_0.2_Mass,           !- Name
    Mineral Wool_0.194_UVal_0.2_Mass,  !- Outside Layer
    General Concrete_0.2_UVal_0.2_Mass;  !- Layer 2

  Construction,
    UVal_0.2_Mass_FLIPPED,   !- Name
    General Concrete_0.2_UVal_0.2_Mass,  !- Outside Layer
    Mineral Wool_0.194_UVal_0.2_Mass;  !- Layer 2

! Materials
!- Material: Mineral Wool Type: Insulation

  Material,
    Mineral Wool_0.194_UVal_0.2_Mass,  !- Name
    Rough,                   !- Roughness
    0.194,                   !- Thickness {m}
    0.041,                   !- Conductivity {W/m-K}
    155,                     !- Density {kg/m3}
    1130,                    !- Specific Heat {J/kg-K}
    0.9,                     !- Thermal Absorptance
    0.7,                     !- Solar Absorptance
    0.7;                     !- Visible Absorptance

!- Material: General Concrete Type: Concrete

  Material,
    General Concrete_0.2_UVal_0.2_Mass,  !- Name
    Rough,                   !- Roughness
    0.2,                     !- Thickness {m}
    2,                       !- Conductivity {W/m-K}
    2400,                    !- Density {kg/m3}
    950,                     !- Specific Heat {J/kg-K}
    0.9,                     !- Thermal Absorptance
    0.7,                     !- Solar Absorptance
    0.7;                     !- Visible Absorptance

! Partition_Mass Type: Facade

  Construction,
    Partition_Mass,          !- Name
    Plaster_0.05_Partition_Mass,  !- Outside Layer
    Poroton T12_0.24_Partition_Mass,  !- Layer 2
    Plaster_0.05_Partition_Mass;  !- Layer 3

  Construction,
    Partition_Mass_FLIPPED,  !- Name
    Plaster_0.05_Partition_Mass,  !- Outside Layer
    Poroton T12_0.24_Partition_Mass,  !- Layer 2
    Plaster_0.05_Partition_Mass;  !- Layer 3

! Materials
!- Material: Plaster Type: Screed

  Material,
    Plaster_0.05_Partition_Mass,  !- Name
    Rough,                   !- Roughness
    0.05,                    !- Thickness {m}
    1,                       !- Conductivity {W/m-K}
    2000,                    !- Density {kg/m3}
    1130,                    !- Specific Heat {J/kg-K}
    0.9,                     !- Thermal Absorptance
    0.7,                     !- Solar Absorptance
    0.7;                     !- Visible Absorptance

!- Material: Poroton T12 Type: Masonry

  Material,
    Poroton T12_0.24_Partition_Mass,  !- Name
    Rough,                   !- Roughness
    0.24,                    !- Thickness {m}
    0.12,                    !- Conductivity {W/m-K}
    650,                     !- Density {kg/m3}
    1000,                    !- Specific Heat {J/kg-K}
    0.9,                     !- Thermal Absorptance
    0.7,                     !- Solar Absorptance
    0.7;                     !- Visible Absorptance

! ------------ GLAZING

  Construction,
    DoublePaneLoEe3,         !- Name
    DoublePaneLoEe3Window;   !- Outside Layer

  WindowMaterial:SimpleGlazingSystem,
    DoublePaneLoEe3Window,   !- Name
    1.507,                   !- U-Factor {W/m2-K}
    0.649,                   !- Solar Heat Gain Coefficient
    0.769;                   !- Visible Transmittance

! ------------ SCHEDULES

  Schedule:Year,
    occOffice,               !- Name
    Fraction,                !- Schedule Type Limits Name
    occOffice0,              !- Schedule:Week Name 1
    1,                       !- Start Month 1
    1,                       !- Start Day 1
    12,                      !- End Month 1
    31;                      !- End Day 1

  Schedule:Week:Daily,
    occOffice0,              !- Name
    occOfficeWeekEnd,        !- Sunday Schedule:Day Name
    occOffice,               !- Monday Schedule:Day Name
    occOffice,               !- Tuesday Schedule:Day Name
    occOffice,               !- Wednesday Schedule:Day Name
    occOffice,               !- Thursday Schedule:Day Name
    occOffice,               !- Friday Schedule:Day Name
    occOfficeWeekEnd,        !- Saturday Schedule:Day Name
    occOfficeWeekEnd,        !- Holiday Schedule:Day Name
    occOffice,               !- SummerDesignDay Schedule:Day Name
    occOffice,               !- WinterDesignDay Schedule:Day Name
    occOffice,               !- CustomDay1 Schedule:Day Name
    occOffice;               !- CustomDay2 Schedule:Day Name

  Schedule:Year,
    AirSpeed 0,              !- Name
    AnyNumber,               !- Schedule Type Limits Name
    AirSpeed 00,             !- Schedule:Week Name 1
    1,                       !- Start Month 1
    1,                       !- Start Day 1
    12,                      !- End Month 1
    31;                      !- End Day 1

  Schedule:Week:Daily,
    AirSpeed 00,             !- Name
    AirSpeed 0,              !- Sunday Schedule:Day Name
    AirSpeed 0,              !- Monday Schedule:Day Name
    AirSpeed 0,              !- Tuesday Schedule:Day Name
    AirSpeed 0,              !- Wednesday Schedule:Day Name
    AirSpeed 0,              !- Thursday Schedule:Day Name
    AirSpeed 0,              !- Friday Schedule:Day Name
    AirSpeed 0,              !- Saturday Schedule:Day Name
    AirSpeed 0,              !- Holiday Schedule:Day Name
    AirSpeed 0,              !- SummerDesignDay Schedule:Day Name
    AirSpeed 0,              !- WinterDesignDay Schedule:Day Name
    AirSpeed 0,              !- CustomDay1 Schedule:Day Name
    AirSpeed 0;              !- CustomDay2 Schedule:Day Name

  Schedule:Year,
    AllOn,                   !- Name
    Fraction,                !- Schedule Type Limits Name
    AllOn0,                  !- Schedule:Week Name 1
    1,                       !- Start Month 1
    1,                       !- Start Day 1
    12,                      !- End Month 1
    31;                      !- End Day 1

  Schedule:Week:Daily,
    AllOn0,                  !- Name
    AllOn,                   !- Sunday Schedule:Day Name
    AllOn,                   !- Monday Schedule:Day Name
    AllOn,                   !- Tuesday Schedule:Day Name
    AllOn,                   !- Wednesday Schedule:Day Name
    AllOn,                   !- Thursday Schedule:Day Name
    AllOn,                   !- Friday Schedule:Day Name
    AllOn,                   !- Saturday Schedule:Day Name
    AllOn,                   !- Holiday Schedule:Day Name
    AllOn,                   !- SummerDesignDay Schedule:Day Name
    AllOn,                   !- WinterDesignDay Schedule:Day Name
    AllOn,                   !- CustomDay1 Schedule:Day Name
    AllOn;                   !- CustomDay2 Schedule:Day Name

  Schedule:Year,
    lightsOffice,            !- Name
    Fraction,                !- Schedule Type Limits Name
    lightsOffice0,           !- Schedule:Week Name 1
    1,                       !- Start Month 1
    1,                       !- Start Day 1
    12,                      !- End Month 1
    31;                      !- End Day 1

  Schedule:Week:Daily,
    lightsOffice0,           !- Name
    lightsOfficeWeekEnd,     !- Sunday Schedule:Day Name
    lightsOffice,            !- Monday Schedule:Day Name
    lightsOffice,            !- Tuesday Schedule:Day Name
    lightsOffice,            !- Wednesday Schedule:Day Name
    lightsOffice,            !- Thursday Schedule:Day Name
    lightsOffice,            !- Friday Schedule:Day Name
    lightsOfficeWeekEnd,     !- Saturday Schedule:Day Name
    lightsOfficeWeekEnd,     !- Holiday Schedule:Day Name
    lightsOffice,            !- SummerDesignDay Schedule:Day Name
    lightsOffice,            !- WinterDesignDay Schedule:Day Name
    lightsOffice,            !- CustomDay1 Schedule:Day Name
    lightsOffice;            !- CustomDay2 Schedule:Day Name

  Schedule:Year,
    equipOffice,             !- Name
    Fraction,                !- Schedule Type Limits Name
    equipOffice0,            !- Schedule:Week Name 1
    1,                       !- Start Month 1
    1,                       !- Start Day 1
    12,                      !- End Month 1
    31;                      !- End Day 1

  Schedule:Week:Daily,
    equipOffice0,            !- Name
    equipOfficeWeekEnd,      !- Sunday Schedule:Day Name
    equipOffice,             !- Monday Schedule:Day Name
    equipOffice,             !- Tuesday Schedule:Day Name
    equipOffice,             !- Wednesday Schedule:Day Name
    equipOffice,             !- Thursday Schedule:Day Name
    equipOffice,             !- Friday Schedule:Day Name
    equipOfficeWeekEnd,      !- Saturday Schedule:Day Name
    equipOfficeWeekEnd,      !- Holiday Schedule:Day Name
    equipOffice,             !- SummerDesignDay Schedule:Day Name
    equipOffice,             !- WinterDesignDay Schedule:Day Name
    equipOffice,             !- CustomDay1 Schedule:Day Name
    equipOffice;             !- CustomDay2 Schedule:Day Name

  Schedule:Year,
    occSuperMarket,          !- Name
    Fraction,                !- Schedule Type Limits Name
    occSuperMarket0,         !- Schedule:Week Name 1
    1,                       !- Start Month 1
    1,                       !- Start Day 1
    12,                      !- End Month 1
    31;                      !- End Day 1

  Schedule:Week:Daily,
    occSuperMarket0,         !- Name
    occSuperMarket,          !- Sunday Schedule:Day Name
    occSuperMarket,          !- Monday Schedule:Day Name
    occSuperMarket,          !- Tuesday Schedule:Day Name
    occSuperMarket,          !- Wednesday Schedule:Day Name
    occSuperMarket,          !- Thursday Schedule:Day Name
    occSuperMarket,          !- Friday Schedule:Day Name
    occSuperMarket,          !- Saturday Schedule:Day Name
    occSuperMarket,          !- Holiday Schedule:Day Name
    occSuperMarket,          !- SummerDesignDay Schedule:Day Name
    occSuperMarket,          !- WinterDesignDay Schedule:Day Name
    occSuperMarket,          !- CustomDay1 Schedule:Day Name
    occSuperMarket;          !- CustomDay2 Schedule:Day Name

  Schedule:Year,
    lightsSuperMarket,       !- Name
    Fraction,                !- Schedule Type Limits Name
    lightsSuperMarket0,      !- Schedule:Week Name 1
    1,                       !- Start Month 1
    1,                       !- Start Day 1
    12,                      !- End Month 1
    31;                      !- End Day 1

  Schedule:Week:Daily,
    lightsSuperMarket0,      !- Name
    lightsSuperMarket,       !- Sunday Schedule:Day Name
    lightsSuperMarket,       !- Monday Schedule:Day Name
    lightsSuperMarket,       !- Tuesday Schedule:Day Name
    lightsSuperMarket,       !- Wednesday Schedule:Day Name
    lightsSuperMarket,       !- Thursday Schedule:Day Name
    lightsSuperMarket,       !- Friday Schedule:Day Name
    lightsSuperMarket,       !- Saturday Schedule:Day Name
    lightsSuperMarket,       !- Holiday Schedule:Day Name
    lightsSuperMarket,       !- SummerDesignDay Schedule:Day Name
    lightsSuperMarket,       !- WinterDesignDay Schedule:Day Name
    lightsSuperMarket,       !- CustomDay1 Schedule:Day Name
    lightsSuperMarket;       !- CustomDay2 Schedule:Day Name

  Schedule:Year,
    equipSuperMarket,        !- Name
    Fraction,                !- Schedule Type Limits Name
    equipSuperMarket0,       !- Schedule:Week Name 1
    1,                       !- Start Month 1
    1,                       !- Start Day 1
    12,                      !- End Month 1
    31;                      !- End Day 1

  Schedule:Week:Daily,
    equipSuperMarket0,       !- Name
    equipSuperMarket,        !- Sunday Schedule:Day Name
    equipSuperMarket,        !- Monday Schedule:Day Name
    equipSuperMarket,        !- Tuesday Schedule:Day Name
    equipSuperMarket,        !- Wednesday Schedule:Day Name
    equipSuperMarket,        !- Thursday Schedule:Day Name
    equipSuperMarket,        !- Friday Schedule:Day Name
    equipSuperMarket,        !- Saturday Schedule:Day Name
    equipSuperMarket,        !- Holiday Schedule:Day Name
    equipSuperMarket,        !- SummerDesignDay Schedule:Day Name
    equipSuperMarket,        !- WinterDesignDay Schedule:Day Name
    equipSuperMarket,        !- CustomDay1 Schedule:Day Name
    equipSuperMarket;        !- CustomDay2 Schedule:Day Name

  Schedule:Year,
    occClassRoom,            !- Name
    Fraction,                !- Schedule Type Limits Name
    occClassRoom0,           !- Schedule:Week Name 1
    1,                       !- Start Month 1
    1,                       !- Start Day 1
    12,                      !- End Month 1
    31;                      !- End Day 1

  Schedule:Week:Daily,
    occClassRoom0,           !- Name
    occClassRoomWeekEnd,     !- Sunday Schedule:Day Name
    occClassRoom,            !- Monday Schedule:Day Name
    occClassRoom,            !- Tuesday Schedule:Day Name
    occClassRoom,            !- Wednesday Schedule:Day Name
    occClassRoom,            !- Thursday Schedule:Day Name
    occClassRoom,            !- Friday Schedule:Day Name
    occClassRoomWeekEnd,     !- Saturday Schedule:Day Name
    occClassRoomWeekEnd,     !- Holiday Schedule:Day Name
    occClassRoom,            !- SummerDesignDay Schedule:Day Name
    occClassRoom,            !- WinterDesignDay Schedule:Day Name
    occClassRoom,            !- CustomDay1 Schedule:Day Name
    occClassRoom;            !- CustomDay2 Schedule:Day Name

  Schedule:Year,
    lightsClassRoom,         !- Name
    Fraction,                !- Schedule Type Limits Name
    lightsClassRoom0,        !- Schedule:Week Name 1
    1,                       !- Start Month 1
    1,                       !- Start Day 1
    12,                      !- End Month 1
    31;                      !- End Day 1

  Schedule:Week:Daily,
    lightsClassRoom0,        !- Name
    lightsClassRoomWeekEnd,  !- Sunday Schedule:Day Name
    lightsClassRoom,         !- Monday Schedule:Day Name
    lightsClassRoom,         !- Tuesday Schedule:Day Name
    lightsClassRoom,         !- Wednesday Schedule:Day Name
    lightsClassRoom,         !- Thursday Schedule:Day Name
    lightsClassRoom,         !- Friday Schedule:Day Name
    lightsClassRoomWeekEnd,  !- Saturday Schedule:Day Name
    lightsClassRoomWeekEnd,  !- Holiday Schedule:Day Name
    lightsClassRoom,         !- SummerDesignDay Schedule:Day Name
    lightsClassRoom,         !- WinterDesignDay Schedule:Day Name
    lightsClassRoom,         !- CustomDay1 Schedule:Day Name
    lightsClassRoom;         !- CustomDay2 Schedule:Day Name

  Schedule:Year,
    equipClassRoom,          !- Name
    Fraction,                !- Schedule Type Limits Name
    equipClassRoom0,         !- Schedule:Week Name 1
    1,                       !- Start Month 1
    1,                       !- Start Day 1
    12,                      !- End Month 1
    31;                      !- End Day 1

  Schedule:Week:Daily,
    equipClassRoom0,         !- Name
    equipClassRoomWeekEnd,   !- Sunday Schedule:Day Name
    equipClassRoom,          !- Monday Schedule:Day Name
    equipClassRoom,          !- Tuesday Schedule:Day Name
    equipClassRoom,          !- Wednesday Schedule:Day Name
    equipClassRoom,          !- Thursday Schedule:Day Name
    equipClassRoom,          !- Friday Schedule:Day Name
    equipClassRoomWeekEnd,   !- Saturday Schedule:Day Name
    equipClassRoomWeekEnd,   !- Holiday Schedule:Day Name
    equipClassRoom,          !- SummerDesignDay Schedule:Day Name
    equipClassRoom,          !- WinterDesignDay Schedule:Day Name
    equipClassRoom,          !- CustomDay1 Schedule:Day Name
    equipClassRoom;          !- CustomDay2 Schedule:Day Name

  Schedule:Year,
    AllOff,                  !- Name
    Fraction,                !- Schedule Type Limits Name
    AllOff0,                 !- Schedule:Week Name 1
    1,                       !- Start Month 1
    1,                       !- Start Day 1
    12,                      !- End Month 1
    31;                      !- End Day 1

  Schedule:Week:Daily,
    AllOff0,                 !- Name
    AllOff,                  !- Sunday Schedule:Day Name
    AllOff,                  !- Monday Schedule:Day Name
    AllOff,                  !- Tuesday Schedule:Day Name
    AllOff,                  !- Wednesday Schedule:Day Name
    AllOff,                  !- Thursday Schedule:Day Name
    AllOff,                  !- Friday Schedule:Day Name
    AllOff,                  !- Saturday Schedule:Day Name
    AllOff,                  !- Holiday Schedule:Day Name
    AllOff,                  !- SummerDesignDay Schedule:Day Name
    AllOff,                  !- WinterDesignDay Schedule:Day Name
    AllOff,                  !- CustomDay1 Schedule:Day Name
    AllOff;                  !- CustomDay2 Schedule:Day Name

  Schedule:Day:Hourly,
    occOffice,               !- Name
    Fraction,                !- Schedule Type Limits Name
    0,                       !- Hour 1
    0,                       !- Hour 2
    0,                       !- Hour 3
    0,                       !- Hour 4
    0,                       !- Hour 5
    0,                       !- Hour 6
    0,                       !- Hour 7
    0.2,                     !- Hour 8
    0.4,                     !- Hour 9
    0.6,                     !- Hour 10
    0.8,                     !- Hour 11
    0.8,                     !- Hour 12
    0.4,                     !- Hour 13
    0.6,                     !- Hour 14
    0.8,                     !- Hour 15
    0.8,                     !- Hour 16
    0.4,                     !- Hour 17
    0.2,                     !- Hour 18
    0,                       !- Hour 19
    0,                       !- Hour 20
    0,                       !- Hour 21
    0,                       !- Hour 22
    0,                       !- Hour 23
    0;                       !- Hour 24

  Schedule:Day:Hourly,
    occOfficeWeekEnd,        !- Name
    Fraction,                !- Schedule Type Limits Name
    0,                       !- Hour 1
    0,                       !- Hour 2
    0,                       !- Hour 3
    0,                       !- Hour 4
    0,                       !- Hour 5
    0,                       !- Hour 6
    0,                       !- Hour 7
    0,                       !- Hour 8
    0,                       !- Hour 9
    0,                       !- Hour 10
    0,                       !- Hour 11
    0,                       !- Hour 12
    0,                       !- Hour 13
    0,                       !- Hour 14
    0,                       !- Hour 15
    0,                       !- Hour 16
    0,                       !- Hour 17
    0,                       !- Hour 18
    0,                       !- Hour 19
    0,                       !- Hour 20
    0,                       !- Hour 21
    0,                       !- Hour 22
    0,                       !- Hour 23
    0;                       !- Hour 24

  Schedule:Day:Hourly,
    AirSpeed 0,              !- Name
    AnyNumber,               !- Schedule Type Limits Name
    0,                       !- Hour 1
    0,                       !- Hour 2
    0,                       !- Hour 3
    0,                       !- Hour 4
    0,                       !- Hour 5
    0,                       !- Hour 6
    0,                       !- Hour 7
    0,                       !- Hour 8
    0,                       !- Hour 9
    0,                       !- Hour 10
    0,                       !- Hour 11
    0,                       !- Hour 12
    0,                       !- Hour 13
    0,                       !- Hour 14
    0,                       !- Hour 15
    0,                       !- Hour 16
    0,                       !- Hour 17
    0,                       !- Hour 18
    0,                       !- Hour 19
    0,                       !- Hour 20
    0,                       !- Hour 21
    0,                       !- Hour 22
    0,                       !- Hour 23
    0;                       !- Hour 24

  Schedule:Day:Hourly,
    AllOn,                   !- Name
    Fraction,                !- Schedule Type Limits Name
    1,                       !- Hour 1
    1,                       !- Hour 2
    1,                       !- Hour 3
    1,                       !- Hour 4
    1,                       !- Hour 5
    1,                       !- Hour 6
    1,                       !- Hour 7
    1,                       !- Hour 8
    1,                       !- Hour 9
    1,                       !- Hour 10
    1,                       !- Hour 11
    1,                       !- Hour 12
    1,                       !- Hour 13
    1,                       !- Hour 14
    1,                       !- Hour 15
    1,                       !- Hour 16
    1,                       !- Hour 17
    1,                       !- Hour 18
    1,                       !- Hour 19
    1,                       !- Hour 20
    1,                       !- Hour 21
    1,                       !- Hour 22
    1,                       !- Hour 23
    1;                       !- Hour 24

  Schedule:Day:Hourly,
    lightsOffice,            !- Name
    Fraction,                !- Schedule Type Limits Name
    0,                       !- Hour 1
    0,                       !- Hour 2
    0,                       !- Hour 3
    0,                       !- Hour 4
    0,                       !- Hour 5
    0,                       !- Hour 6
    0,                       !- Hour 7
    1,                       !- Hour 8
    1,                       !- Hour 9
    1,                       !- Hour 10
    1,                       !- Hour 11
    1,                       !- Hour 12
    1,                       !- Hour 13
    1,                       !- Hour 14
    1,                       !- Hour 15
    1,                       !- Hour 16
    1,                       !- Hour 17
    1,                       !- Hour 18
    0,                       !- Hour 19
    0,                       !- Hour 20
    0,                       !- Hour 21
    0,                       !- Hour 22
    0,                       !- Hour 23
    0;                       !- Hour 24

  Schedule:Day:Hourly,
    lightsOfficeWeekEnd,     !- Name
    Fraction,                !- Schedule Type Limits Name
    0,                       !- Hour 1
    0,                       !- Hour 2
    0,                       !- Hour 3
    0,                       !- Hour 4
    0,                       !- Hour 5
    0,                       !- Hour 6
    0,                       !- Hour 7
    0,                       !- Hour 8
    0,                       !- Hour 9
    0,                       !- Hour 10
    0,                       !- Hour 11
    0,                       !- Hour 12
    0,                       !- Hour 13
    0,                       !- Hour 14
    0,                       !- Hour 15
    0,                       !- Hour 16
    0,                       !- Hour 17
    0,                       !- Hour 18