!- Darwin Line endings

  Version,9.2;

  SimulationControl,
    No,                      !- Do Zone Sizing Calculation
    No,                      !- Do System Sizing Calculation
    No,                      !- Do Plant Sizing Calculation
    No,                      !- Run Simulation for Sizing Periods
    Yes;                     !- Run Simulation for Weather File Run Periods

  Building,
    Building,                !- Name
    0.0,                     !- North Axis {deg}
    Suburbs,                 !- Terrain
    0.04,                    !- Loads Convergence Tolerance Value
    0.4,                     !- Temperature Convergence Tolerance Value {deltaC}
    FullExterior,            !- Solar Distribution
    25,                      !- Maximum Number of Warmup Days
    ;                        !- Minimum Number of Warmup Days

  ShadowCalculation,
    AverageOverDaysInFrequency,  !- Calculation Method
    20,                      !- Calculation Frequency
    15000,                   !- Maximum Figures in Shadow Overlap Calculations
    SutherlandHodgman,       !- Polygon Clipping Algorithm
    SimpleSkyDiffuseModeling;!- Sky Diffuse Modeling Algorithm

  SurfaceConvectionAlgorithm:Inside,TARP;

  SurfaceConvectionAlgorithm:Outside,DOE-2;

  HeatBalanceAlgorithm,ConductionTransferFunction,200.0,0.1,1000.0;

  Timestep,4;

  ConvergenceLimits,
    1,                       !- Minimum System Timestep {minutes}
    50;                      !- Maximum HVAC Iterations

  RunPeriod,
    ArchSim,                 !- Name
    1,                       !- Begin Month
    1,                       !- Begin Day of Month
    ,                        !- Begin Year
    12,                      !- End Month
    31,                      !- End Day of Month
    ,                        !- End Year
    ,                        !- Day of Week for Start Day
    No,                      !- Use Weather File Holidays and Special Days
    No,                      !- Use Weather File Daylight Saving Period
    Yes,                     !- Apply Weekend Holiday Rule
    Yes,                     !- Use Weather File Rain Indicators
    Yes,                     !- Use Weather File Snow Indicators
    ;                        !- Treat Weather as Actual

  RunPeriodControl:DaylightSavingTime,
    Last Sunday in March,    !- Start Date
    Last Sunday in October;  !- End Date

  Site:GroundTemperature:BuildingSurface,14.0,14.0,14.0,14.0,14.0,14.0,14.0,14.0,14.0,14.0,14.0,14.0;

  Site:GroundReflectance,0.2,0.2,0.2,0.2,0.2,0.2,0.2,0.2,0.2,0.2,0.2,0.2;

  Site:GroundReflectance:SnowModifier,
    1.0,                     !- Ground Reflected Solar Modifier
    1.0;                     !- Daylighting Ground Reflected Solar Modifier

  ScheduleTypeLimits,
    Any Number;              !- Name

  ScheduleTypeLimits,
    Fraction,                !- Name
    0.0,                     !- Lower Limit Value
    1.0,                     !- Upper Limit Value
    CONTINUOUS;              !- Numeric Type

  ScheduleTypeLimits,
    Temperature,             !- Name
    -60.0,                   !- Lower Limit Value
    200.0,                   !- Upper Limit Value
    CONTINUOUS;              !- Numeric Type

  ScheduleTypeLimits,
    Control GasType,         !- Name
    0.0,                     !- Lower Limit Value
    4.0,                     !- Upper Limit Value
    DISCRETE;                !- Numeric Type

  ScheduleTypeLimits,
    On/Off,                  !- Name
    0.0,                     !- Lower Limit Value
    1.0,                     !- Upper Limit Value
    DISCRETE;                !- Numeric Type

  Schedule:Day:Hourly,
    B_Off_D_Occ_WD,          !- Name
    Fraction,                !- Schedule Type Limits Name
    0.0,                     !- Hour 1
    0.0,                     !- Hour 2
    0.0,                     !- Hour 3
    0.0,                     !- Hour 4
    0.0,                     !- Hour 5
    0.0,                     !- Hour 6
    0.1,                     !- Hour 7
    0.2,                     !- Hour 8
    1.0,                     !- Hour 9
    1.0,                     !- Hour 10
    1.0,                     !- Hour 11
    1.0,                     !- Hour 12
    0.5,                     !- Hour 13
    1.0,                     !- Hour 14
    1.0,                     !- Hour 15
    1.0,                     !- Hour 16
    1.0,                     !- Hour 17
    0.3,                     !- Hour 18
    0.2,                     !- Hour 19
    0.1,                     !- Hour 20
    0.0,                     !- Hour 21
    0.0,                     !- Hour 22
    0.0,                     !- Hour 23
    0.0;                     !- Hour 24

  Schedule:Day:Hourly,
    B_Off_D_Occ_WE,          !- Name
    Fraction,                !- Schedule Type Limits Name
    0.0,                     !- Hour 1
    0.0,                     !- Hour 2
    0.0,                     !- Hour 3
    0.0,                     !- Hour 4
    0.0,                     !- Hour 5
    0.0,                     !- Hour 6
    0.1,                     !- Hour 7
    0.1,                     !- Hour 8
    0.1,                     !- Hour 9
    0.1,                     !- Hour 10
    0.1,                     !- Hour 11
    0.1,                     !- Hour 12
    0.1,                     !- Hour 13
    0.1,                     !- Hour 14
    0.1,                     !- Hour 15
    0.1,                     !- Hour 16
    0.1,                     !- Hour 17
    0.1,                     !- Hour 18
    0.1,                     !- Hour 19
    0.1,                     !- Hour 20
    0.0,                     !- Hour 21
    0.0,                     !- Hour 22
    0.0,                     !- Hour 23
    0.0;                     !- Hour 24

  Schedule:Day:Hourly,
    B_Off_D_Het_WD,          !- Name
    Fraction,                !- Schedule Type Limits Name
    0.0,                     !- Hour 1
    0.0,                     !- Hour 2
    0.0,                     !- Hour 3
    0.0,                     !- Hour 4
    0.0,                     !- Hour 5
    0.0,                     !- Hour 6
    1.0,                     !- Hour 7
    1.0,                     !- Hour 8
    1.0,                     !- Hour 9
    1.0,                     !- Hour 10
    1.0,                     !- Hour 11
    1.0,                     !- Hour 12
    1.0,                     !- Hour 13
    1.0,                     !- Hour 14
    1.0,                     !- Hour 15
    1.0,                     !- Hour 16
    1.0,                     !- Hour 17
    1.0,                     !- Hour 18
    1.0,                     !- Hour 19
    1.0,                     !- Hour 20
    0.0,                     !- Hour 21
    0.0,                     !- Hour 22
    0.0,                     !- Hour 23
    0.0;                     !- Hour 24

  Schedule:Day:Hourly,
    B_Off_D_Het_WE,          !- Name
    Fraction,                !- Schedule Type Limits Name
    0.0,                     !- Hour 1
    0.0,                     !- Hour 2
    0.0,                     !- Hour 3
    0.0,                     !- Hour 4
    0.0,                     !- Hour 5
    0.0,                     !- Hour 6
    0.0,                     !- Hour 7
    0.0,                     !- Hour 8
    0.0,                     !- Hour 9
    0.0,                     !- Hour 10
    0.0,                     !- Hour 11
    0.0,                     !- Hour 12
    0.0,                     !- Hour 13
    0.0,                     !- Hour 14
    0.0,                     !- Hour 15
    0.0,                     !- Hour 16
    0.0,                     !- Hour 17
    0.0,                     !- Hour 18
    0.0,                     !- Hour 19
    0.0,                     !- Hour 20
    0.0,                     !- Hour 21
    0.0,                     !- Hour 22
    0.0,                     !- Hour 23
    0.0;                     !- Hour 24

  Schedule:Day:Hourly,
    B_Off_D_Off,             !- Name
    Fraction,                !- Schedule Type Limits Name
    0.0,                     !- Hour 1
    0.0,                     !- Hour 2
    0.0,                     !- Hour 3
    0.0,                     !- Hour 4
    0.0,                     !- Hour 5
    0.0,                     !- Hour 6
    0.0,                     !- Hour 7
    0.0,                     !- Hour 8
    0.0,                     !- Hour 9
    0.0,                     !- Hour 10
    0.0,                     !- Hour 11
    0.0,                     !- Hour 12
    0.0,                     !- Hour 13
    0.0,                     !- Hour 14
    0.0,                     !- Hour 15
    0.0,                     !- Hour 16
    0.0,                     !- Hour 17
    0.0,                     !- Hour 18
    0.0,                     !- Hour 19
    0.0,                     !- Hour 20
    0.0,                     !- Hour 21
    0.0,                     !- Hour 22
    0.0,                     !- Hour 23
    0.0;                     !- Hour 24

  Schedule:Day:Hourly,
    B_Off_D_Col_WD,          !- Name
    Fraction,                !- Schedule Type Limits Name
    0.0,                     !- Hour 1
    0.0,                     !- Hour 2
    0.0,                     !- Hour 3
    0.0,                     !- Hour 4
    0.0,                     !- Hour 5
    0.0,                     !- Hour 6
    1.0,                     !- Hour 7
    1.0,                     !- Hour 8
    1.0,                     !- Hour 9
    1.0,                     !- Hour 10
    1.0,                     !- Hour 11
    1.0,                     !- Hour 12
    1.0,                     !- Hour 13
    1.0,                     !- Hour 14
    1.0,                     !- Hour 15
    1.0,                     !- Hour 16
    1.0,                     !- Hour 17
    1.0,                     !- Hour 18
    1.0,                     !- Hour 19
    1.0,                     !- Hour 20
    0.0,                     !- Hour 21
    0.0,                     !- Hour 22
    0.0,                     !- Hour 23
    0.0;                     !- Hour 24

  Schedule:Day:Hourly,
    B_Off_D_Col_WE,          !- Name
    Fraction,                !- Schedule Type Limits Name
    0.0,                     !- Hour 1
    0.0,                     !- Hour 2
    0.0,                     !- Hour 3
    0.0,                     !- Hour 4
    0.0,                     !- Hour 5
    0.0,                     !- Hour 6
    0.0,                     !- Hour 7
    0.0,                     !- Hour 8
    0.0,                     !- Hour 9
    0.0,                     !- Hour 10
    0.0,                     !- Hour 11
    0.0,                     !- Hour 12
    0.0,                     !- Hour 13
    0.0,                     !- Hour 14
    0.0,                     !- Hour 15
    0.0,                     !- Hour 16
    0.0,                     !- Hour 17
    0.0,                     !- Hour 18
    0.0,                     !- Hour 19
    0.0,                     !- Hour 20
    0.0,                     !- Hour 21
    0.0,                     !- Hour 22
    0.0,                     !- Hour 23
    0.0;                     !- Hour 24

  Schedule:Day:Hourly,
    B_Off_D_Nat_WD,          !- Name
    Fraction,                !- Schedule Type Limits Name
    0.0,                     !- Hour 1
    0.0,                     !- Hour 2
    0.0,                     !- Hour 3
    0.0,                     !- Hour 4
    0.0,                     !- Hour 5
    0.0,                     !- Hour 6
    1.0,                     !- Hour 7
    1.0,                     !- Hour 8
    1.0,                     !- Hour 9
    1.0,                     !- Hour 10
    1.0,                     !- Hour 11
    1.0,                     !- Hour 12
    1.0,                     !- Hour 13
    1.0,                     !- Hour 14
    1.0,                     !- Hour 15
    1.0,                     !- Hour 16
    1.0,                     !- Hour 17
    1.0,                     !- Hour 18
    1.0,                     !- Hour 19
    1.0,                     !- Hour 20
    0.0,                     !- Hour 21
    0.0,                     !- Hour 22
    0.0,                     !- Hour 23
    0.0;                     !- Hour 24

  Schedule:Day:Hourly,
    B_Off_D_Nat_WE,          !- Name
    Fraction,                !- Schedule Type Limits Name
    0.0,                     !- Hour 1
    0.0,                     !- Hour 2
    0.0,                     !- Hour 3
    0.0,                     !- Hour 4
    0.0,                     !- Hour 5
    0.0,                     !- Hour 6
    0.0,                     !- Hour 7
    0.0,                     !- Hour 8
    0.0,                     !- Hour 9
    0.0,                     !- Hour 10
    0.0,                     !- Hour 11
    0.0,                     !- Hour 12
    0.0,                     !- Hour 13
    0.0,                     !- Hour 14
    0.0,                     !- Hour 15
    0.0,                     !- Hour 16
    0.0,                     !- Hour 17
    0.0,                     !- Hour 18
    0.0,                     !- Hour 19
    0.0,                     !- Hour 20
    0.0,                     !- Hour 21
    0.0,                     !- Hour 22
    0.0,                     !- Hour 23
    0.0;                     !- Hour 24

  Schedule:Day:Hourly,
    B_Off_D_Dhw_WD,          !- Name
    Fraction,                !- Schedule Type Limits Name
    0.0,                     !- Hour 1
    0.0,                     !- Hour 2
    0.0,                     !- Hour 3
    0.0,                     !- Hour 4
    0.0,                     !- Hour 5
    0.0,                     !- Hour 6
    0.2,                     !- Hour 7
    0.4,                     !- Hour 8
    0.4,                     !- Hour 9
    0.4,                     !- Hour 10
    0.4,                     !- Hour 11
    0.6,                     !- Hour 12
    0.6,                     !- Hour 13
    0.4,                     !- Hour 14
    0.4,                     !- Hour 15
    0.4,                     !- Hour 16
    0.4,                     !- Hour 17
    0.4,                     !- Hour 18
    0.4,                     !- Hour 19
    0.2,                     !- Hour 20
    0.0,                     !- Hour 21
    0.0,                     !- Hour 22
    0.0,                     !- Hour 23
    0.0;                     !- Hour 24

  Schedule:Day:Hourly,
    B_Off_D_Dhw_WE,          !- Name
    Fraction,                !- Schedule Type Limits Name
    0.0,                     !- Hour 1
    0.0,                     !- Hour 2
    0.0,                     !- Hour 3
    0.0,                     !- Hour 4
    0.0,                     !- Hour 5
    0.0,                     !- Hour 6
    0.1,                     !- Hour 7
    0.1,                     !- Hour 8
    0.1,                     !- Hour 9
    0.1,                     !- Hour 10
    0.1,                     !- Hour 11
    0.1,                     !- Hour 12
    0.1,                     !- Hour 13
    0.1,                     !- Hour 14
    0.1,                     !- Hour 15
    0.1,                     !- Hour 16
    0.1,                     !- Hour 17
    0.1,                     !- Hour 18
    0.1,                     !- Hour 19
    0.1,                     !- Hour 20
    0.0,                     !- Hour 21
    0.0,                     !- Hour 22
    0.0,                     !- Hour 23
    0.0;                     !- Hour 24

  Schedule:Day:Hourly,
    B_Off_D_Lgt_WD,          !- Name
    Fraction,                !- Schedule Type Limits Name
    0.1,                     !- Hour 1
    0.1,                     !- Hour 2
    0.1,                     !- Hour 3
    0.1,                     !- Hour 4
    0.1,                     !- Hour 5
    0.1,                     !- Hour 6
    0.1,                     !- Hour 7
    0.3,                     !- Hour 8
    1.0,                     !- Hour 9
    1.0,                     !- Hour 10
    1.0,                     !- Hour 11
    1.0,                     !- Hour 12
    0.8,                     !- Hour 13
    1.0,                     !- Hour 14
    1.0,                     !- Hour 15
    1.0,                     !- Hour 16
    1.0,                     !- Hour 17
    0.5,                     !- Hour 18
    0.3,                     !- Hour 19
    0.3,                     !- Hour 20
    0.2,                     !- Hour 21
    0.2,                     !- Hour 22
    0.1,                     !- Hour 23
    0.1;                     !- Hour 24

  Schedule:Day:Hourly,
    B_Off_D_Lgt_WE,          !- Name
    Fraction,                !- Schedule Type Limits Name
    0.1,                     !- Hour 1
    0.1,                     !- Hour 2
    0.1,                     !- Hour 3
    0.1,                     !- Hour 4
    0.1,                     !- Hour 5
    0.1,                     !- Hour 6
    0.1,                     !- Hour 7
    0.1,                     !- Hour 8
    0.1,                     !- Hour 9
    0.1,                     !- Hour 10
    0.1,                     !- Hour 11
    0.1,                     !- Hour 12
    0.1,                     !- Hour 13
    0.1,                     !- Hour 14
    0.1,                     !- Hour 15
    0.1,                     !- Hour 16
    0.1,                     !- Hour 17
    0.1,                     !- Hour 18
    0.1,                     !- Hour 19
    0.1,                     !- Hour 20
    0.1,                     !- Hour 21
    0.1,                     !- Hour 22
    0.1,                     !- Hour 23
    0.1;                     !- Hour 24

  Schedule:Day:Hourly,
    B_Off_D_Plg_WD,          !- Name
    Fraction,                !- Schedule Type Limits Name
    0.1,                     !- Hour 1
    0.1,                     !- Hour 2
    0.1,                     !- Hour 3
    0.1,                     !- Hour 4
    0.1,                     !- Hour 5
    0.1,                     !- Hour 6
    0.1,                     !- Hour 7
    0.3,                     !- Hour 8
    1.0,                     !- Hour 9
    1.0,                     !- Hour 10
    1.0,                     !- Hour 11
    1.0,                     !- Hour 12
    0.8,                     !- Hour 13
    1.0,                     !- Hour 14
    1.0,                     !- Hour 15
    1.0,                     !- Hour 16
    1.0,                     !- Hour 17
    1.0,                     !- Hour 18
    0.3,                     !- Hour 19
    0.3,                     !- Hour 20
    0.2,                     !- Hour 21
    0.2,                     !- Hour 22
    0.1,                     !- Hour 23
    0.1;                     !- Hour 24

  Schedule:Day:Hourly,
    B_Off_D_Plg_WE,          !- Name
    Fraction,                !- Schedule Type Limits Name
    0.1,                     !- Hour 1
    0.1,                     !- Hour 2
    0.1,                     !- Hour 3
    0.1,                     !- Hour 4
    0.1,                     !- Hour 5
    0.1,                     !- Hour 6
    0.1,                     !- Hour 7
    0.1,                     !- Hour 8
    0.1,                     !- Hour 9
    0.1,                     !- Hour 10
    0.1,                     !- Hour 11
    0.1,                     !- Hour 12
    0.1,                     !- Hour 13
    0.1,                     !- Hour 14
    0.1,                     !- Hour 15
    0.1,                     !- Hour 16
    0.1,                     !- Hour 17
    0.1,                     !- Hour 18
    0.1,                     !- Hour 19
    0.1,                     !- Hour 20
    0.1,                     !- Hour 21
    0.1,                     !- Hour 22
    0.1,                     !- Hour 23
    0.1;                     !- Hour 24

  Schedule:Week:Daily,
    B_Off_W_Occ,             !- Name
    B_Off_D_Occ_WE,          !- Sunday Schedule:Day Name
    B_Off_D_Occ_WD,          !- Monday Schedule:Day Name
    B_Off_D_Occ_WD,          !- Tuesday Schedule:Day Name
    B_Off_D_Occ_WD,          !- Wednesday Schedule:Day Name
    B_Off_D_Occ_WD,          !- Thursday Schedule:Day Name
    B_Off_D_Occ_WD,          !- Friday Schedule:Day Name
    B_Off_D_Occ_WE,          !- Saturday Schedule:Day Name
    B_Off_D_Occ_WE,          !- Holiday Schedule:Day Name
    B_Off_D_Occ_WD,          !- SummerDesignDay Schedule:Day Name
    B_Off_D_Occ_WD,          !- WinterDesignDay Schedule:Day Name
    B_Off_D_Occ_WD,          !- CustomDay1 Schedule:Day Name
    B_Off_D_Occ_WD;          !- CustomDay2 Schedule:Day Name

  Schedule:Week:Daily,
    B_Off_W_Het,             !- Name
    B_Off_D_Het_WE,          !- Sunday Schedule:Day Name
    B_Off_D_Het_WD,          !- Monday Schedule:Day Name
    B_Off_D_Het_WD,          !- Tuesday Schedule:Day Name
    B_Off_D_Het_WD,          !- Wednesday Schedule:Day Name
    B_Off_D_Het_WD,          !- Thursday Schedule:Day Name
    B_Off_D_Het_WD,          !- Friday Schedule:Day Name
    B_Off_D_Het_WE,          !- Saturday Schedule:Day Name
    B_Off_D_Het_WE,          !- Holiday Schedule:Day Name
    B_Off_D_Het_WD,          !- SummerDesignDay Schedule:Day Name
    B_Off_D_Het_WD,          !- WinterDesignDay Schedule:Day Name
    B_Off_D_Het_WD,          !- CustomDay1 Schedule:Day Name
    B_Off_D_Het_WD;          !- CustomDay2 Schedule:Day Name

  Schedule:Week:Daily,
    B_Off_W_Off,             !- Name
    B_Off_D_Off,             !- Sunday Schedule:Day Name
    B_Off_D_Off,             !- Monday Schedule:Day Name
    B_Off_D_Off,             !- Tuesday Schedule:Day Name
    B_Off_D_Off,             !- Wednesday Schedule:Day Name
    B_Off_D_Off,             !- Thursday Schedule:Day Name
    B_Off_D_Off,             !- Friday Schedule:Day Name
    B_Off_D_Off,             !- Saturday Schedule:Day Name
    B_Off_D_Off,             !- Holiday Schedule:Day Name
    B_Off_D_Off,             !- SummerDesignDay Schedule:Day Name
    B_Off_D_Off,             !- WinterDesignDay Schedule:Day Name
    B_Off_D_Off,             !- CustomDay1 Schedule:Day Name
    B_Off_D_Off;             !- CustomDay2 Schedule:Day Name

  Schedule:Week:Daily,
    B_Off_W_Col,             !- Name
    B_Off_D_Col_WE,          !- Sunday Schedule:Day Name
    B_Off_D_Col_WD,          !- Monday Schedule:Day Name
    B_Off_D_Col_WD,          !- Tuesday Schedule:Day Name
    B_Off_D_Col_WD,          !- Wednesday Schedule:Day Name
    B_Off_D_Col_WD,          !- Thursday Schedule:Day Name
    B_Off_D_Col_WD,          !- Friday Schedule:Day Name
    B_Off_D_Col_WE,          !- Saturday Schedule:Day Name
    B_Off_D_Col_WE,          !- Holiday Schedule:Day Name
    B_Off_D_Col_WD,          !- SummerDesignDay Schedule:Day Name
    B_Off_D_Col_WD,          !- WinterDesignDay Schedule:Day Name
    B_Off_D_Col_WD,          !- CustomDay1 Schedule:Day Name
    B_Off_D_Col_WD;          !- CustomDay2 Schedule:Day Name

  Schedule:Week:Daily,
    B_Off_W_Nat,             !- Name
    B_Off_D_Nat_WE,          !- Sunday Schedule:Day Name
    B_Off_D_Nat_WD,          !- Monday Schedule:Day Name
    B_Off_D_Nat_WD,          !- Tuesday Schedule:Day Name
    B_Off_D_Nat_WD,          !- Wednesday Schedule:Day Name
    B_Off_D_Nat_WD,          !- Thursday Schedule:Day Name
    B_Off_D_Nat_WD,          !- Friday Schedule:Day Name
    B_Off_D_Nat_WE,          !- Saturday Schedule:Day Name
    B_Off_D_Nat_WE,          !- Holiday Schedule:Day Name
    B_Off_D_Nat_WD,          !- SummerDesignDay Schedule:Day Name
    B_Off_D_Nat_WD,          !- WinterDesignDay Schedule:Day Name
    B_Off_D_Nat_WD,          !- CustomDay1 Schedule:Day Name
    B_Off_D_Nat_WD;          !- CustomDay2 Schedule:Day Name

  Schedule:Week:Daily,
    B_Off_W_Dhw,             !- Name
    B_Off_D_Dhw_WE,          !- Sunday Schedule:Day Name
    B_Off_D_Dhw_WD,          !- Monday Schedule:Day Name
    B_Off_D_Dhw_WD,          !- Tuesday Schedule:Day Name
    B_Off_D_Dhw_WD,          !- Wednesday Schedule:Day Name
    B_Off_D_Dhw_WD,          !- Thursday Schedule:Day Name
    B_Off_D_Dhw_WD,          !- Friday Schedule:Day Name
    B_Off_D_Dhw_WE,          !- Saturday Schedule:Day Name
    B_Off_D_Dhw_WE,          !- Holiday Schedule:Day Name
    B_Off_D_Dhw_WD,          !- SummerDesignDay Schedule:Day Name
    B_Off_D_Dhw_WD,          !- WinterDesignDay Schedule:Day Name
    B_Off_D_Dhw_WD,          !- CustomDay1 Schedule:Day Name
    B_Off_D_Dhw_WD;          !- CustomDay2 Schedule:Day Name

  Schedule:Week:Daily,
    B_Off_W_Lgt,             !- Name
    B_Off_D_Lgt_WE,          !- Sunday Schedule:Day Name
    B_Off_D_Lgt_WD,          !- Monday Schedule:Day Name
    B_Off_D_Lgt_WD,          !- Tuesday Schedule:Day Name
    B_Off_D_Lgt_WD,          !- Wednesday Schedule:Day Name
    B_Off_D_Lgt_WD,          !- Thursday Schedule:Day Name
    B_Off_D_Lgt_WD,          !- Friday Schedule:Day Name
    B_Off_D_Lgt_WE,          !- Saturday Schedule:Day Name
    B_Off_D_Lgt_WE,          !- Holiday Schedule:Day Name
    B_Off_D_Lgt_WD,          !- SummerDesignDay Schedule:Day Name
    B_Off_D_Lgt_WD,          !- WinterDesignDay Schedule:Day Name
    B_Off_D_Lgt_WD,          !- CustomDay1 Schedule:Day Name
    B_Off_D_Lgt_WD;          !- CustomDay2 Schedule:Day Name

  Schedule:Week:Daily,
    B_Off_W_Plg,             !- Name
    B_Off_D_Plg_WE,          !- Sunday Schedule:Day Name
    B_Off_D_Plg_WD,          !- Monday Schedule:Day Name
    B_Off_D_Plg_WD,          !- Tuesday Schedule:Day Name
    B_Off_D_Plg_WD,          !- Wednesday Schedule:Day Name
    B_Off_D_Plg_WD,          !- Thursday Schedule:Day Name
    B_Off_D_Plg_WD,          !- Friday Schedule:Day Name
    B_Off_D_Plg_WE,          !- Saturday Schedule:Day Name
    B_Off_D_Plg_WE,          !- Holiday Schedule:Day Name
    B_Off_D_Plg_WD,          !- SummerDesignDay Schedule:Day Name
    B_Off_D_Plg_WD,          !- WinterDesignDay Schedule:Day Name
    B_Off_D_Plg_WD,          !- CustomDay1 Schedule:Day Name
    B_Off_D_Plg_WD;          !- CustomDay2 Schedule:Day Name

  Schedule:Year,
    B_Off_Y_Occ,             !- Name
    Fraction,                !- Schedule Type Limits Name
    B_Off_W_Occ,             !- Schedule:Week Name 1
    1,                       !- Start Month 1
    1,                       !- Start Day 1
    12,                      !- End Month 1
    31;                      !- End Day 1

  Schedule:Year,
    B_Off_Y_Het,             !- Name
    Fraction,                !- Schedule Type Limits Name
    B_Off_W_Het,             !- Schedule:Week Name 1
    1,                       !- Start Month 1
    1,                       !- Start Day 1
    4,                       !- End Month 1
    30,                      !- End Day 1
    B_Off_W_Off,             !- Schedule:Week Name 2
    5,                       !- Start Month 2
    1,                       !- Start Day 2
    9,                       !- End Month 2
    30,                      !- End Day 2
    B_Off_W_Het,             !- Schedule:Week Name 3
    10,                      !- Start Month 3
    1,                       !- Start Day 3
    12,                      !- End Month 3
    31;                      !- End Day 3

  Schedule:Year,
    B_Off_Y_Col,             !- Name
    Fraction,                !- Schedule Type Limits Name
    B_Off_W_Off,             !- Schedule:Week Name 1
    1,                       !- Start Month 1
    1,                       !- Start Day 1
    3,                       !- End Month 1
    31,                      !- End Day 1
    B_Off_W_Col,             !- Schedule:Week Name 2
    4,                       !- Start Month 2
    1,                       !- Start Day 2
    9,                       !- End Month 2
    30,                      !- End Day 2
    B_Off_W_Off,             !- Schedule:Week Name 3
    10,                      !- Start Month 3
    1,                       !- Start Day 3
    12,                      !- End Month 3
    31;                      !- End Day 3

  Schedule:Year,
    B_Off_Y_Nat,             !- Name
    Fraction,                !- Schedule Type Limits Name
    B_Off_W_Off,             !- Schedule:Week Name 1
    1,                       !- Start Month 1
    1,                       !- Start Day 1
    3,                       !- End Month 1
    31,                      !- End Day 1
    B_Off_W_Nat,             !- Schedule:Week Name 2
    4,                       !- Start Month 2
    1,                       !- Start Day 2
    10,                      !- End Month 2
    31,                      !- End Day 2
    B_Off_W_Off,             !- Schedule:Week Name 3
    11,                      !- Start Month 3
    1,                       !- Start Day 3
    12,                      !- End Month 3
    31;                      !- End Day 3

  Schedule:Year,
    B_Off_Y_Dhw,             !- Name
    Fraction,                !- Schedule Type Limits Name
    B_Off_W_Dhw,             !- Schedule:Week Name 1
    1,                       !- Start Month 1
    1,                       !- Start Day 1
    12,                      !- End Month 1
    31;                      !- End Day 1

  Schedule:Year,
    B_Off_Y_Lgt,             !- Name
    Fraction,                !- Schedule Type Limits Name
    B_Off_W_Lgt,             !- Schedule:Week Name 1
    1,                       !- Start Month 1
    1,                       !- Start Day 1
    12,                      !- End Month 1
    31;                      !- End Day 1

  Schedule:Year,
    B_Off_Y_Plg,             !- Name
    Fraction,                !- Schedule Type Limits Name
    B_Off_W_Plg,             !- Schedule:Week Name 1
    1,                       !- Start Month 1
    1,                       !- Start Day 1
    12,                      !- End Month 1
    31;                      !- End Day 1

  Schedule:Constant,On,On/Off,1.0;

  Schedule:Constant,Off,On/Off,0.0;

  Schedule:Constant,PerimPeopleActivity,Any Number,125.28;

  Schedule:Constant,PerimAirVelocity,Any Number,0.2;

  Schedule:Constant,PerimWorkEfficiency,Any Number,0.0;

  Schedule:Constant,PerimHeating_SP_Sch,Temperature,20.0;
