!- Darwin Line endings 

Version,
    8.9;                      !- Version Identifier

SimulationControl,
    No,                       !- Do Zone Sizing Calculation
    No,                       !- Do System Sizing Calculation
    No,                       !- Do Plant Sizing Calculation
    No,                       !- Run Simulation for Sizing Periods
    Yes;                      !- Run Simulation for Weather File Run Periods

Building,
    BUILDING #1,              !- Name
    0.0,                      !- North Axis
    Suburbs,                  !- Terrain
    0.039999999,              !- Loads Convergence Tolerance Value
    0.4,                      !- Temperature Convergence Tolerance Value
    FullExterior,             !- Solar Distribution
    25,                       !- Maximum Number of Warmup Days
    6;                        !- Minimum Number of Warmup Days

SurfaceConvectionAlgorithm:Inside,
    Simple;                   !- Algorithm

SurfaceConvectionAlgorithm:Outside,
    SimpleCombined;           !- Algorithm

Timestep,
    4;                        !- Number of Timesteps per Hour

Site:Location,
    HILO_HI_USA TMY2-21504,    !- Name
    19.72,                    !- Latitude
    -155.07,                  !- Longitude
    -10.0,                    !- Time Zone
    11.0;                     !- Elevation

SizingPeriod:DesignDay,
    HILO_HI_USA Heating 99% Conditions,    !- Name
    1,                        !- Month
    21,                       !- Day of Month
    WinterDesignDay,          !- Day Type
    17.1,                     !- Maximum DryBulb Temperature
    0.0,                      !- Daily DryBulb Temperature Range
    ,                         !- DryBulb Temperature Range Modifier Type
    ,                         !- DryBulb Temperature Range Modifier Day Schedule Name
    Wetbulb,                  !- Humidity Condition Type
    17.1,                     !- Wetbulb or DewPoint at Maximum DryBulb
    ,                         !- Humidity Condition Day Schedule Name
    ,                         !- Humidity Ratio at Maximum DryBulb
    ,                         !- Enthalpy at Maximum DryBulb
    ,                         !- Daily WetBulb Temperature Range
    101193.0,                 !- Barometric Pressure
    3.2,                      !- Wind Speed
    230.0,                    !- Wind Direction
    No,                       !- Rain Indicator
    No,                       !- Snow Indicator
    No,                       !- Daylight Saving Time Indicator
    ASHRAEClearSky,           !- Solar Model Indicator
    ,                         !- Beam Solar Day Schedule Name
    ,                         !- Diffuse Solar Day Schedule Name
    ,                         !- ASHRAE Clear Sky Optical Depth for Beam Irradiance taub
    ,                         !- ASHRAE Clear Sky Optical Depth for Diffuse Irradiance taud
    0.0;                      !- Sky Clearness

SizingPeriod:DesignDay,
    HILO_HI_USA Cooling 1% Conditions DB=>MWB,    !- Name
    7,                        !- Month
    21,                       !- Day of Month
    SummerDesignDay,          !- Day Type
    29.1,                     !- Maximum DryBulb Temperature
    7.4,                      !- Daily DryBulb Temperature Range
    ,                         !- DryBulb Temperature Range Modifier Type
    ,                         !- DryBulb Temperature Range Modifier Day Schedule Name
    Wetbulb,                  !- Humidity Condition Type
    23.1,                     !- Wetbulb or DewPoint at Maximum DryBulb
    ,                         !- Humidity Condition Day Schedule Name
    ,                         !- Humidity Ratio at Maximum DryBulb
    ,                         !- Enthalpy at Maximum DryBulb
    ,                         !- Daily WetBulb Temperature Range
    101193.0,                 !- Barometric Pressure
    5.4,                      !- Wind Speed
    110.0,                    !- Wind Direction
    No,                       !- Rain Indicator
    No,                       !- Snow Indicator
    No,                       !- Daylight Saving Time Indicator
    ASHRAEClearSky,           !- Solar Model Indicator
    ,                         !- Beam Solar Day Schedule Name
    ,                         !- Diffuse Solar Day Schedule Name
    ,                         !- ASHRAE Clear Sky Optical Depth for Beam Irradiance taub
    ,                         !- ASHRAE Clear Sky Optical Depth for Diffuse Irradiance taud
    1.0;                      !- Sky Clearness

SizingPeriod:DesignDay,
    HILO Hawaii Spring Day,    !- Name
    4,                        !- Month
    1,                        !- Day of Month
    SummerDesignDay,          !- Day Type
    23.1,                     !- Maximum DryBulb Temperature
    3.7,                      !- Daily DryBulb Temperature Range
    ,                         !- DryBulb Temperature Range Modifier Type
    ,                         !- DryBulb Temperature Range Modifier Day Schedule Name
    Wetbulb,                  !- Humidity Condition Type
    20.1,                     !- Wetbulb or DewPoint at Maximum DryBulb
    ,                         !- Humidity Condition Day Schedule Name
    ,                         !- Humidity Ratio at Maximum DryBulb
    ,                         !- Enthalpy at Maximum DryBulb
    ,                         !- Daily WetBulb Temperature Range
    101193.0,                 !- Barometric Pressure
    4.3,                      !- Wind Speed
    170.0,                    !- Wind Direction
    No,                       !- Rain Indicator
    No,                       !- Snow Indicator
    No,                       !- Daylight Saving Time Indicator
    ASHRAEClearSky,           !- Solar Model Indicator
    ,                         !- Beam Solar Day Schedule Name
    ,                         !- Diffuse Solar Day Schedule Name
    ,                         !- ASHRAE Clear Sky Optical Depth for Beam Irradiance taub
    ,                         !- ASHRAE Clear Sky Optical Depth for Diffuse Irradiance taud
    1.0;                      !- Sky Clearness

RunPeriod,
    ,                         !- Name
    1,                        !- Begin Month
    1,                        !- Begin Day of Month
    12,                       !- End Month
    31,                       !- End Day of Month
    Tuesday,                  !- Day of Week for Start Day
    Yes,                      !- Use Weather File Holidays and Special Days
    Yes,                      !- Use Weather File Daylight Saving Period
    No,                       !- Apply Weekend Holiday Rule
    Yes,                      !- Use Weather File Rain Indicators
    Yes;                      !- Use Weather File Snow Indicators

Site:GroundTemperature:BuildingSurface,
    19.0,                     !- January Ground Temperature
    19.0,                     !- February Ground Temperature
    19.0,                     !- March Ground Temperature
    20.0,                     !- April Ground Temperature
    22.0,                     !- May Ground Temperature
    23.0,                     !- June Ground Temperature
    24.0,                     !- July Ground Temperature
    23.0,                     !- August Ground Temperature
    22.0,                     !- September Ground Temperature
    21.0,                     !- October Ground Temperature
    20.0,                     !- November Ground Temperature
    19.0;                     !- December Ground Temperature

ScheduleTypeLimits,
    Any Number;               !- Name

ScheduleTypeLimits,
    Fraction,                 !- Name
    0.0,                      !- Lower Limit Value
    1.0,                      !- Upper Limit Value
    CONTINUOUS;               !- Numeric Type

Schedule:Compact,
    Residence Occupancy,      !- Name
    ANY NUMBER,               !- Schedule Type Limits Name
    Through: 12/31,           !- Field 1
    For: Weekdays SummerDesignDay WinterDesignDay,    !- Field 2
    Until: 7:00,              !- Field 3
    1.00,                     !- Field 4
    Until: 8:00,              !- Field 5
    0.50,                     !- Field 6
    Until: 15:00,             !- Field 7
    0.30,                     !- Field 8
    Until: 16:00,             !- Field 9
    0.40,                     !- Field 10
    Until: 17:00,             !- Field 11
    0.70,                     !- Field 12
    Until: 24:00,             !- Field 13
    1.00,                     !- Field 14
    For: Weekends Holidays CustomDay1 CustomDay2,    !- Field 15
    Until: 9:00,              !- Field 16
    1.00,                     !- Field 17
    Until: 16:00,             !- Field 18
    0.30,                     !- Field 19
    Until: 23:00,             !- Field 20
    0.70,                     !- Field 21
    Until: 24:00,             !- Field 22
    1.00;                     !- Field 23

Schedule:Compact,
    Residence Lighting,       !- Name
    ANY NUMBER,               !- Schedule Type Limits Name
    Through: 12/31,           !- Field 1
    For: Weekdays SummerDesignDay WinterDesignDay,    !- Field 2
    Until: 6:00,              !- Field 3
    0.10,                     !- Field 4
    Until: 8:00,              !- Field 5
    0.20,                     !- Field 6
    Until: 16:00,             !- Field 7
    0.10,                     !- Field 8
    Until: 17:00,             !- Field 9
    0.20,                     !- Field 10
    Until: 19:00,             !- Field 11
    0.50,                     !- Field 12
    Until: 22:00,             !- Field 13
    1.00,                     !- Field 14
    Until: 23:00,             !- Field 15
    0.50,                     !- Field 16
    Until: 24:00,             !- Field 17
    0.30,                     !- Field 18
    For: Weekends Holidays CustomDay1 CustomDay2,    !- Field 19
    Until: 16:00,             !- Field 20
    0.10,                     !- Field 21
    Until: 18:00,             !- Field 22
    0.50,                     !- Field 23
    Until: 22:00,             !- Field 24
    1.00,                     !- Field 25
    Until: 23:00,             !- Field 26
    0.50,                     !- Field 27
    Until: 24:00,             !- Field 28
    0.30;                     !- Field 29

Schedule:Compact,
    Constant,                 !- Name
    ANY NUMBER,               !- Schedule Type Limits Name
    Through: 12/31,           !- Field 1
    For: Alldays,             !- Field 2
    Until: 24:00,             !- Field 3
    1.00;                     !- Field 4

Schedule:Compact,
    ACTIVITY LVL   1,         !- Name
    ANY NUMBER,               !- Schedule Type Limits Name
    Through: 12/31,           !- Field 1
    For: Alldays,             !- Field 2
    Until: 24:00,             !- Field 3
    130.00;                   !- Field 4

Schedule:Compact,
    SHADINGTRANSMITTANCE:0001,    !- Name
    FRACTION,                 !- Schedule Type Limits Name
    Through: 12/31,           !- Field 1
    For: Alldays,             !- Field 2
    Until: 24:00,             !- Field 3
    0.00;                     !- Field 4

Material,
    A2 - 4 IN DENSE FACE BRICK,    !- Name
    Rough,                    !- Roughness
    0.1014984,                !- Thickness
    1.245296,                 !- Conductivity
    2082.4,                   !- Density
    920.48,                   !- Specific Heat
    0.9,                      !- Thermal Absorptance
    0.93,                     !- Solar Absorptance
    0.93;                     !- Visible Absorptance

Material,
    B3 - 2 IN INSULATION,     !- Name
    VeryRough,                !- Roughness
    0.050901599,              !- Thickness
    0.04323943,               !- Conductivity
    32.03693,                 !- Density
    836.8,                    !- Specific Heat
    0.9,                      !- Thermal Absorptance
    0.5,                      !- Solar Absorptance
    0.5;                      !- Visible Absorptance

Material,
    C2 - 4 IN LW CONCRETE BLOCK,    !- Name
    MediumRough,              !- Roughness
    0.1014984,                !- Thickness
    0.380507,                 !- Conductivity
    608.7016,                 !- Density
    836.8,                    !- Specific Heat
    0.9,                      !- Thermal Absorptance
    0.65,                     !- Solar Absorptance
    0.65;                     !- Visible Absorptance

Material,
    E1 - 3 / 4 IN PLASTER OR GYP BOARD,    !- Name
    Smooth,                   !- Roughness
    0.01905,                  !- Thickness
    0.7264224,                !- Conductivity
    1601.846,                 !- Density
    836.8,                    !- Specific Heat
    0.9,                      !- Thermal Absorptance
    0.92,                     !- Solar Absorptance
    0.92;                     !- Visible Absorptance

Material,
    DIRT 12 IN,               !- Name
    Rough,                    !- Roughness
    0.3048,                   !- Thickness
    0.1729577,                !- Conductivity
    1041.2,                   !- Density
    836.8,                    !- Specific Heat
    0.9,                      !- Thermal Absorptance
    0.7,                      !- Solar Absorptance
    0.7;                      !- Visible Absorptance

Material,
    CONCRETE - SAND AND GRAVEL 4 IN,    !- Name
    MediumRough,              !- Roughness
    0.1014984,                !- Thickness
    1.729577,                 !- Conductivity
    2242.585,                 !- Density
    836.8,                    !- Specific Heat
    0.9,                      !- Thermal Absorptance
    0.6,                      !- Solar Absorptance
    0.6;                      !- Visible Absorptance

Material,
    E2 - 1 / 2 IN SLAG OR STONE,    !- Name
    Rough,                    !- Roughness
    0.012710161,              !- Thickness
    1.435549,                 !- Conductivity
    881.0155,                 !- Density
    1673.6,                   !- Specific Heat
    0.9,                      !- Thermal Absorptance
    0.55,                     !- Solar Absorptance
    0.55;                     !- Visible Absorptance

Material,
    E3 - 3 / 8 IN FELT AND MEMBRANE,    !- Name
    Rough,                    !- Roughness
    0.0095402403,             !- Thickness
    0.1902535,                !- Conductivity
    1121.292,                 !- Density
    1673.6,                   !- Specific Heat
    0.9,                      !- Thermal Absorptance
    0.75,                     !- Solar Absorptance
    0.75;                     !- Visible Absorptance

Material,
    B6 - 2 IN DENSE INSULATION,    !- Name
    VeryRough,                !- Roughness
    0.050901599,              !- Thickness
    0.04323943,               !- Conductivity
    91.30524,                 !- Density
    836.8,                    !- Specific Heat
    0.9,                      !- Thermal Absorptance
    0.5,                      !- Solar Absorptance
    0.5;                      !- Visible Absorptance

Material,
    C12 - 2 IN HW CONCRETE,    !- Name
    MediumRough,              !- Roughness
    0.050901599,              !- Thickness
    1.729577,                 !- Conductivity
    2242.585,                 !- Density
    836.8,                    !- Specific Heat
    0.9,                      !- Thermal Absorptance
    0.65,                     !- Solar Absorptance
    0.65;                     !- Visible Absorptance

WindowMaterial:Glazing,
    GLASS - CLEAR PLATE 1 / 4 IN,    !- Name
    SpectralAverage,          !- Optical Data Type
    ,                         !- Window Glass Spectral Data Set Name
    0.0060000001,             !- Thickness
    0.775,                    !- Solar Transmittance at Normal Incidence
    0.071000002,              !- Front Side Solar Reflectance at Normal Incidence
    0.071000002,              !- Back Side Solar Reflectance at Normal Incidence
    0.881,                    !- Visible Transmittance at Normal Incidence
    0.079999998,              !- Front Side Visible Reflectance at Normal Incidence
    0.079999998,              !- Back Side Visible Reflectance at Normal Incidence
    0.0,                      !- Infrared Transmittance at Normal Incidence
    0.84,                     !- Front Side Infrared Hemispherical Emissivity
    0.84,                     !- Back Side Infrared Hemispherical Emissivity
    0.9;                      !- Conductivity

Construction,
    EXTERIOR,                 !- Name
    A2 - 4 IN DENSE FACE BRICK,    !- Outside Layer
    B3 - 2 IN INSULATION,     !- Layer 2
    C2 - 4 IN LW CONCRETE BLOCK,    !- Layer 3
    E1 - 3 / 4 IN PLASTER OR GYP BOARD;    !- Layer 4

Construction,
    SINGLE PANE HW WINDOW,    !- Name
    GLASS - CLEAR PLATE 1 / 4 IN;    !- Outside Layer

Construction,
    SLAB FLOOR,               !- Name
    DIRT 12 IN,               !- Outside Layer
    CONCRETE - SAND AND GRAVEL 4 IN;    !- Layer 2

Construction,
    ROOF31,                   !- Name
    E2 - 1 / 2 IN SLAG OR STONE,    !- Outside Layer
    E3 - 3 / 8 IN FELT AND MEMBRANE,    !- Layer 2
    B6 - 2 IN DENSE INSULATION,    !- Layer 3
    C12 - 2 IN HW CONCRETE;    !- Layer 4

GlobalGeometryRules,
    UpperLeftCorner,          !- Starting Vertex Position
    CounterClockWise,         !- Vertex Entry Direction
    World;                    !- Coordinate System

Zone,
    ZONE 1,                   !- Name
    0.0,                      !- Direction of Relative North
    1.98,                     !- X Origin
    4.58,                     !- Y Origin
    0.0,                      !- Z Origin
    1,                        !- Type
    1,                        !- Multiplier
    autocalculate,            !- Ceiling Height
    autocalculate;            !- Volume

Zone,
    ZONE 2,                   !- Name
    0.0,                      !- Direction of Relative North
    101.98,                   !- X Origin
    4.58,                     !- Y Origin
    0.0,                      !- Z Origin
    1,                        !- Type
    1,                        !- Multiplier
    autocalculate,            !- Ceiling Height
    autocalculate;            !- Volume

Zone,
    ZONE 3,                   !- Name
    0.0,                      !- Direction of Relative North
    201.98,                   !- X Origin
    4.58,                     !- Y Origin
    0.0,                      !- Z Origin
    1,                        !- Type
    1,                        !- Multiplier
    autocalculate,            !- Ceiling Height
    autocalculate;            !- Volume

BuildingSurface:Detailed,
    Zn001:Wall001,            !- Name
    Wall,                     !- Surface Type
    EXTERIOR,                 !- Construction Name
    ZONE 1,                   !- Zone Name
    Outdoors,                 !- Outside Boundary Condition
    ,                         !- Outside Boundary Condition Object
    SunExposed,               !- Sun Exposure
    WindExposed,              !- Wind Exposure
    0.5,                      !- View Factor to Ground
    4.0,                      !- Number of Vertices
    1.98,                     !- Vertex 1 Xcoordinate
    5.98,                     !- Vertex 1 Ycoordinate
    10.0,                     !- Vertex 1 Zcoordinate
    1.98,                     !- Vertex 2 Xcoordinate
    5.98,                     !- Vertex 2 Ycoordinate
    0.0,                      !- Vertex 2 Zcoordinate
    7.28,                     !- Vertex 3 Xcoordinate
    5.98,                     !- Vertex 3 Ycoordinate
    0.0,                      !- Vertex 3 Zcoordinate
    7.28,                     !- Vertex 4 Xcoordinate
    5.98,                     !- Vertex 4 Ycoordinate
    10.0;                     !- Vertex 4 Zcoordinate

BuildingSurface:Detailed,
    Zn001:Wall002,            !- Name
    Wall,                     !- Surface Type
    EXTERIOR,                 !- Construction Name
    ZONE 1,                   !- Zone Name
    Outdoors,                 !- Outside Boundary Condition
    ,                         !- Outside Boundary Condition Object
    SunExposed,               !- Sun Exposure
    WindExposed,              !- Wind Exposure
    0.5,                      !- View Factor to Ground
    4.0,                      !- Number of Vertices
    7.28,                     !- Vertex 1 Xcoordinate
    5.98,                     !- Vertex 1 Ycoordinate
    10.0,                     !- Vertex 1 Zcoordinate
    7.28,                     !- Vertex 2 Xcoordinate
    5.98,                     !- Vertex 2 Ycoordinate
    0.0,                      !- Vertex 2 Zcoordinate
    7.28,                     !- Vertex 3 Xcoordinate
    8.98,                     !- Vertex 3 Ycoordinate
    0.0,                      !- Vertex 3 Zcoordinate
    7.28,                     !- Vertex 4 Xcoordinate
    8.98,                     !- Vertex 4 Ycoordinate
    10.0;                     !- Vertex 4 Zcoordinate

BuildingSurface:Detailed,
    Zn001:Wall003,            !- Name
    Wall,                     !- Surface Type
    EXTERIOR,                 !- Construction Name
    ZONE 1,                   !- Zone Name
    Outdoors,                 !- Outside Boundary Condition
    ,                         !- Outside Boundary Condition Object
    SunExposed,               !- Sun Exposure
    WindExposed,              !- Wind Exposure
    0.5,                      !- View Factor to Ground
    4.0,                      !- Number of Vertices
    7.28,                     !- Vertex 1 Xcoordinate
    8.98,                     !- Vertex 1 Ycoordinate
    10.0,                     !- Vertex 1 Zcoordinate
    7.28,                     !- Vertex 2 Xcoordinate
    8.98,                     !- Vertex 2 Ycoordinate
    0.0,                      !- Vertex 2 Zcoordinate
    12.88,                    !- Vertex 3 Xcoordinate
    8.98,                     !- Vertex 3 Ycoordinate
    0.0,                      !- Vertex 3 Zcoordinate
    12.88,                    !- Vertex 4 Xcoordinate
    8.98,                     !- Vertex 4 Ycoordinate
    10.0;                     !- Vertex 4 Zcoordinate

BuildingSurface:Detailed,
    Zn001:Wall004,            !- Name
    Wall,                     !- Surface Type
    EXTERIOR,                 !- Construction Name
    ZONE 1,                   !- Zone Name
    Outdoors,                 !- Outside Boundary Condition
    ,                         !- Outside Boundary Condition Object
    SunExposed,               !- Sun Exposure
    WindExposed,              !- Wind Exposure
    0.5,                      !- View Factor to Ground
    4.0,                      !- Number of Vertices
    12.88,                    !- Vertex 1 Xcoordinate
    8.98,                     !- Vertex 1 Ycoordinate
    10.0,                     !- Vertex 1 Zcoordinate
    12.88,                    !- Vertex 2 Xcoordinate
    8.98,                     !- Vertex 2 Ycoordinate
    0.0,                      !- Vertex 2 Zcoordinate
    12.88,                    !- Vertex 3 Xcoordinate
    4.58,                     !- Vertex 3 Ycoordinate
    0.0,                      !- Vertex 3 Zcoordinate
    12.88,                    !- Vertex 4 Xcoordinate
    4.58,                     !- Vertex 4 Ycoordinate
    10.0;                     !- Vertex 4 Zcoordinate

BuildingSurface:Detailed,
    Zn001:Wall005,            !- Name
    Wall,                     !- Surface Type
    EXTERIOR,                 !- Construction Name
    ZONE 1,                   !- Zone Name
    Outdoors,                 !- Outside Boundary Condition
    ,                         !- Outside Boundary Condition Object
    SunExposed,               !- Sun Exposure
    WindExposed,              !- Wind Exposure
    0.5,                      !- View Factor to Ground
    4.0,                      !- Number of Vertices
    12.88,                    !- Vertex 1 Xcoordinate
    4.58,                     !- Vertex 1 Ycoordinate
    10.0,                     !- Vertex 1 Zcoordinate
    12.88,                    !- Vertex 2 Xcoordinate
    4.58,                     !- Vertex 2 Ycoordinate
    0.0,                      !- Vertex 2 Zcoordinate
    18.18,                    !- Vertex 3 Xcoordinate
    4.58,                     !- Vertex 3 Ycoordinate
    0.0,                      !- Vertex 3 Zcoordinate
    18.18,                    !- Vertex 4 Xcoordinate
    4.58,                     !- Vertex 4 Ycoordinate
    10.0;                     !- Vertex 4 Zcoordinate

BuildingSurface:Detailed,
    Zn001:Wall006,            !- Name
    Wall,                     !- Surface Type
    EXTERIOR,                 !- Construction Name
    ZONE 1,                   !- Zone Name
    Outdoors,                 !- Outside Boundary Condition
    ,                         !- Outside Boundary Condition Object
    SunExposed,               !- Sun Exposure
    WindExposed,              !- Wind Exposure
    0.5,                      !- View Factor to Ground
    4.0,                      !- Number of Vertices
    18.18,                    !- Vertex 1 Xcoordinate
    4.58,                     !- Vertex 1 Ycoordinate
    10.0,                     !- Vertex 1 Zcoordinate
    18.18,                    !- Vertex 2 Xcoordinate
    4.58,                     !- Vertex 2 Ycoordinate
    0.0,                      !- Vertex 2 Zcoordinate
    18.18,                    !- Vertex 3 Xcoordinate
    8.08,                     !- Vertex 3 Ycoordinate
    0.0,                      !- Vertex 3 Zcoordinate
    18.18,                    !- Vertex 4 Xcoordinate
    8.08,                     !- Vertex 4 Ycoordinate
    10.0;                     !- Vertex 4 Zcoordinate

BuildingSurface:Detailed,
    Zn001:Wall007,            !- Name
    Wall,                     !- Surface Type
    EXTERIOR,                 !- Construction Name
    ZONE 1,                   !- Zone Name
    Outdoors,                 !- Outside Boundary Condition
    ,                         !- Outside Boundary Condition Object
    SunExposed,               !- Sun Exposure
    WindExposed,              !- Wind Exposure
    0.5,                      !- View Factor to Ground
    4.0,                      !- Number of Vertices
    18.18,                    !- Vertex 1 Xcoordinate
    8.08,                     !- Vertex 1 Ycoordinate
    10.0,                     !- Vertex 1 Zcoordinate
    18.18,                    !- Vertex 2 Xcoordinate
    8.08,                     !- Vertex 2 Ycoordinate
    0.0,                      !- Vertex 2 Zcoordinate
    24.08,                    !- Vertex 3 Xcoordinate
    8.08,                     !- Vertex 3 Ycoordinate
    0.0,                      !- Vertex 3 Zcoordinate
    24.08,                    !- Vertex 4 Xcoordinate
    8.08,                     !- Vertex 4 Ycoordinate
    10.0;                     !- Vertex 4 Zcoordinate

BuildingSurface:Detailed,
    Zn001:Wall008,            !- Name
    Wall,                     !- Surface Type
    EXTERIOR,                 !- Construction Name
    ZONE 1,                   !- Zone Name
    Outdoors,                 !- Outside Boundary Condition
    ,                         !- Outside Boundary Condition Object
    SunExposed,               !- Sun Exposure
    WindExposed,              !- Wind Exposure
    0.5,                      !- View Factor to Ground
    4.0,                      !- Number of Vertices
    24.08,                    !- Vertex 1 Xcoordinate
    8.08,                     !- Vertex 1 Ycoordinate
    10.0,                     !- Vertex 1 Zcoordinate
    24.08,                    !- Vertex 2 Xcoordinate
    8.08,                     !- Vertex 2 Ycoordinate
    0.0,                      !- Vertex 2 Zcoordinate
    24.08,                    !- Vertex 3 Xcoordinate
    5.08,                     !- Vertex 3 Ycoordinate
    0.0,                      !- Vertex 3 Zcoordinate
    24.08,                    !- Vertex 4 Xcoordinate
    5.08,                     !- Vertex 4 Ycoordinate
    10.0;                     !- Vertex 4 Zcoordinate

BuildingSurface:Detailed,
    Zn001:Wall009,            !- Name
    Wall,                     !- Surface Type
    EXTERIOR,                 !- Construction Name
    ZONE 1,                   !- Zone Name
    Outdoors,                 !- Outside Boundary Condition
    ,                         !- Outside Boundary Condition Object
    SunExposed,               !- Sun Exposure
    WindExposed,              !- Wind Exposure
    0.5,                      !- View Factor to Ground
    4.0,                      !- Number of Vertices
    24.08,                    !- Vertex 1 Xcoordinate
    5.08,                     !- Vertex 1 Ycoordinate
    10.0,                     !- Vertex 1 Zcoordinate
    24.08,                    !- Vertex 2 Xcoordinate
    5.08,                     !- Vertex 2 Ycoordinate
    0.0,                      !- Vertex 2 Zcoordinate
    30.08,                    !- Vertex 3 Xcoordinate
    5.08,                     !- Vertex 3 Ycoordinate
    0.0,                      !- Vertex 3 Zcoordinate
    30.08,                    !- Vertex 4 Xcoordinate
    5.08,                     !- Vertex 4 Ycoordinate
    10.0;                     !- Vertex 4 Zcoordinate

BuildingSurface:Detailed,
    Zn001:Wall010,            !- Name
    Wall,                     !- Surface Type
    EXTERIOR,                 !- Construction Name
    ZONE 1,                   !- Zone Name
    Outdoors,                 !- Outside Boundary Condition
    ,                         !- Outside Boundary Condition Object
    SunExposed,               !- Sun Exposure
    WindExposed,              !- Wind Exposure
    0.5,                      !- View Factor to Ground
    4.0,                      !- Number of Vertices
    30.08,                    !- Vertex 1 Xcoordinate
    5.08,                     !- Vertex 1 Ycoordinate
    10.0,                     !- Vertex 1 Zcoordinate
    30.08,                    !- Vertex 2 Xcoordinate
    5.08,                     !- Vertex 2 Ycoordinate