!- Darwin Line endings 

VERSION,
    8.9;                      !- Version Identifier

SimulationControl,
    Yes,                      !- Do Zone Sizing Calculation
    Yes,                      !- Do System Sizing Calculation
    No,                       !- Do Plant Sizing Calculation
    Yes,                      !- Run Simulation for Sizing Periods
    YES;                      !- Run Simulation for Weather File Run Periods

Building,
    Warehouse,                !- Name
    90.0,                     !- North Axis
    Urban,                    !- Terrain
    0.04,                     !- Loads Convergence Tolerance Value
    0.4,                      !- Temperature Convergence Tolerance Value
    FullExterior,             !- Solar Distribution
    25,                       !- Maximum Number of Warmup Days
    6;                        !- Minimum Number of Warmup Days

SurfaceConvectionAlgorithm:Inside,
    TARP;                     !- Algorithm

SurfaceConvectionAlgorithm:Outside,
    TARP;                     !- Algorithm

HeatBalanceAlgorithm,
    ConductionTransferFunction;    !- Algorithm

Timestep,
    4;                        !- Number of Timesteps per Hour

Site:Location,
    Rochester International Arpt_MN_USA Design_Conditions,    !- Name
    43.9,                     !- Latitude
    -92.5,                    !- Longitude
    -6.0,                     !- Time Zone
    398.0;                    !- Elevation

SizingPeriod:DesignDay,
    Rochester International Arpt Ann Htg 99.6% Condns DB,    !- Name
    1,                        !- Month
    21,                       !- Day of Month
    WinterDesignDay,          !- Day Type
    -26.2,                    !- Maximum DryBulb Temperature
    0.0,                      !- Daily DryBulb Temperature Range
    DefaultMultipliers,       !- DryBulb Temperature Range Modifier Type
    ,                         !- DryBulb Temperature Range Modifier Day Schedule Name
    Wetbulb,                  !- Humidity Condition Type
    -26.2,                    !- Wetbulb or DewPoint at Maximum DryBulb
    ,                         !- Humidity Condition Day Schedule Name
    ,                         !- Humidity Ratio at Maximum DryBulb
    ,                         !- Enthalpy at Maximum DryBulb
    ,                         !- Daily WetBulb Temperature Range
    96634.0,                  !- Barometric Pressure
    5.7,                      !- Wind Speed
    310.0,                    !- Wind Direction
    No,                       !- Rain Indicator
    No,                       !- Snow Indicator
    No,                       !- Daylight Saving Time Indicator
    ASHRAEClearSky,           !- Solar Model Indicator
    ,                         !- Beam Solar Day Schedule Name
    ,                         !- Diffuse Solar Day Schedule Name
    ,                         !- ASHRAE Clear Sky Optical Depth for Beam Irradiance taub
    ,                         !- ASHRAE Clear Sky Optical Depth for Diffuse Irradiance taud
    0.0;                      !- Sky Clearness

SizingPeriod:DesignDay,
    Rochester International Arpt Ann Clg .4% Condns DB=>MWB,    !- Name
    7,                        !- Month
    21,                       !- Day of Month
    SummerDesignDay,          !- Day Type
    31.2,                     !- Maximum DryBulb Temperature
    10.6,                     !- Daily DryBulb Temperature Range
    DefaultMultipliers,       !- DryBulb Temperature Range Modifier Type
    ,                         !- DryBulb Temperature Range Modifier Day Schedule Name
    Wetbulb,                  !- Humidity Condition Type
    23.1,                     !- Wetbulb or DewPoint at Maximum DryBulb
    ,                         !- Humidity Condition Day Schedule Name
    ,                         !- Humidity Ratio at Maximum DryBulb
    ,                         !- Enthalpy at Maximum DryBulb
    ,                         !- Daily WetBulb Temperature Range
    96634.0,                  !- Barometric Pressure
    6.7,                      !- Wind Speed
    200.0,                    !- Wind Direction
    No,                       !- Rain Indicator
    No,                       !- Snow Indicator
    No,                       !- Daylight Saving Time Indicator
    ASHRAETau,                !- Solar Model Indicator
    ,                         !- Beam Solar Day Schedule Name
    ,                         !- Diffuse Solar Day Schedule Name
    0.404,                    !- ASHRAE Clear Sky Optical Depth for Beam Irradiance taub
    2.226;                    !- ASHRAE Clear Sky Optical Depth for Diffuse Irradiance taud

RunPeriod,
    ,                         !- Name
    1,                        !- Begin Month
    1,                        !- Begin Day of Month
    12,                       !- End Month
    31,                       !- End Day of Month
    Monday,                   !- Day of Week for Start Day
    No,                       !- Use Weather File Holidays and Special Days
    No,                       !- Use Weather File Daylight Saving Period
    Yes,                      !- Apply Weekend Holiday Rule
    Yes,                      !- Use Weather File Rain Indicators
    Yes,                      !- Use Weather File Snow Indicators
    1;                        !- Number of Times Runperiod to be Repeated

RunPeriodControl:SpecialDays,
    New Years Day,            !- Name
    01/01,                    !- Start Date
    1,                        !- Duration
    Holiday;                  !- Special Day Type

RunPeriodControl:SpecialDays,
    ML King Birthday,         !- Name
    3rd Monday in January,    !- Start Date
    1,                        !- Duration
    Holiday;                  !- Special Day Type

RunPeriodControl:SpecialDays,
    Washington's Birthday,    !- Name
    3rd Monday in February,    !- Start Date
    1,                        !- Duration
    Holiday;                  !- Special Day Type

RunPeriodControl:SpecialDays,
    Memorial Day,             !- Name
    Last Monday in May,       !- Start Date
    1,                        !- Duration
    Holiday;                  !- Special Day Type

RunPeriodControl:SpecialDays,
    Fourth of July,           !- Name
    07/04,                    !- Start Date
    1,                        !- Duration
    Holiday;                  !- Special Day Type

RunPeriodControl:SpecialDays,
    Labor Day,                !- Name
    1st Monday in September,    !- Start Date
    1,                        !- Duration
    Holiday;                  !- Special Day Type

RunPeriodControl:SpecialDays,
    Columbus Day,             !- Name
    2nd Monday in October,    !- Start Date
    1,                        !- Duration
    Holiday;                  !- Special Day Type

RunPeriodControl:SpecialDays,
    Veterans Day,             !- Name
    11/11,                    !- Start Date
    1,                        !- Duration
    Holiday;                  !- Special Day Type

RunPeriodControl:SpecialDays,
    Thanksgiving Day,         !- Name
    4th Thursday in November,    !- Start Date
    1,                        !- Duration
    Holiday;                  !- Special Day Type

RunPeriodControl:SpecialDays,
    Christmas Day,            !- Name
    12/25,                    !- Start Date
    1,                        !- Duration
    Holiday;                  !- Special Day Type

RunPeriodControl:DaylightSavingTime,
    2nd Sunday in March,      !- Start Date
    1st Sunday in November;    !- End Date

Site:GroundTemperature:BuildingSurface,
    12.47,                    !- January Ground Temperature
    12.42,                    !- February Ground Temperature
    12.5,                     !- March Ground Temperature
    12.59,                    !- April Ground Temperature
    13.8,                     !- May Ground Temperature
    17.98,                    !- June Ground Temperature
    19.96,                    !- July Ground Temperature
    19.57,                    !- August Ground Temperature
    15.82,                    !- September Ground Temperature
    13.18,                    !- October Ground Temperature
    12.8,                     !- November Ground Temperature
    12.59;                    !- December Ground Temperature

Site:WaterMainsTemperature,
    Correlation,              !- Calculation Method
    ,                         !- Temperature Schedule Name
    6.375,                    !- Annual Average Outdoor Air Temperature
    33.5;                     !- Maximum Difference In Monthly Average Outdoor Air Temperatures

ScheduleTypeLimits,
    Any Number,               !- Name
    0.0,                      !- Lower Limit Value
    10000,                    !- Upper Limit Value
    Continuous;               !- Numeric Type

ScheduleTypeLimits,
    Fraction,                 !- Name
    0.0,                      !- Lower Limit Value
    1.0,                      !- Upper Limit Value
    Continuous;               !- Numeric Type

ScheduleTypeLimits,
    Temperature,              !- Name
    -60.0,                    !- Lower Limit Value
    200,                      !- Upper Limit Value
    Continuous;               !- Numeric Type

ScheduleTypeLimits,
    On-Off Schedule,          !- Name
    0,                        !- Lower Limit Value
    1,                        !- Upper Limit Value
    Discrete;                 !- Numeric Type

ScheduleTypeLimits,
    Control Type,             !- Name
    0,                        !- Lower Limit Value
    4,                        !- Upper Limit Value
    Discrete;                 !- Numeric Type

ScheduleTypeLimits,
    COMPACT HVAC Any Number;    !- Name

Schedule:Day:Hourly,
    Office Occ WD,            !- Name
    Fraction,                 !- Schedule Type Limits Name
    0.0,                      !- Hour 1
    0.0,                      !- Hour 2
    0.0,                      !- Hour 3
    0.0,                      !- Hour 4
    0.0,                      !- Hour 5
    0.0,                      !- Hour 6
    0.11,                     !- Hour 7
    0.21,                     !- Hour 8
    1.0,                      !- Hour 9
    1.0,                      !- Hour 10
    1.0,                      !- Hour 11
    1.0,                      !- Hour 12
    0.53,                     !- Hour 13
    1.0,                      !- Hour 14
    1.0,                      !- Hour 15
    1.0,                      !- Hour 16
    1.0,                      !- Hour 17
    0.32,                     !- Hour 18
    0.0,                      !- Hour 19
    0.0,                      !- Hour 20
    0.0,                      !- Hour 21
    0.0,                      !- Hour 22
    0.0,                      !- Hour 23
    0.0;                      !- Hour 24

Schedule:Day:Hourly,
    Office Occ WEH,           !- Name
    Fraction,                 !- Schedule Type Limits Name
    0.0,                      !- Hour 1
    0.0,                      !- Hour 2
    0.0,                      !- Hour 3
    0.0,                      !- Hour 4
    0.0,                      !- Hour 5
    0.0,                      !- Hour 6
    0.0,                      !- Hour 7
    0.0,                      !- Hour 8
    0.0,                      !- Hour 9
    0.0,                      !- Hour 10
    0.0,                      !- Hour 11
    0.0,                      !- Hour 12
    0.0,                      !- Hour 13
    0.0,                      !- Hour 14
    0.0,                      !- Hour 15
    0.0,                      !- Hour 16
    0.0,                      !- Hour 17
    0.0,                      !- Hour 18
    0.0,                      !- Hour 19
    0.0,                      !- Hour 20
    0.0,                      !- Hour 21
    0.0,                      !- Hour 22
    0.0,                      !- Hour 23
    0.0;                      !- Hour 24

Schedule:Day:Hourly,
    Office Light WD,          !- Name
    Fraction,                 !- Schedule Type Limits Name
    0.18,                     !- Hour 1
    0.18,                     !- Hour 2
    0.18,                     !- Hour 3
    0.18,                     !- Hour 4
    0.18,                     !- Hour 5
    0.18,                     !- Hour 6
    0.23,                     !- Hour 7
    0.42,                     !- Hour 8
    0.9,                      !- Hour 9
    0.9,                      !- Hour 10
    0.9,                      !- Hour 11
    0.9,                      !- Hour 12
    0.8,                      !- Hour 13
    0.9,                      !- Hour 14
    0.9,                      !- Hour 15
    0.9,                      !- Hour 16
    0.9,                      !- Hour 17
    0.61,                     !- Hour 18
    0.18,                     !- Hour 19
    0.18,                     !- Hour 20
    0.18,                     !- Hour 21
    0.18,                     !- Hour 22
    0.18,                     !- Hour 23
    0.18;                     !- Hour 24

Schedule:Day:Hourly,
    Office Light WD Sensor,    !- Name
    Fraction,                 !- Schedule Type Limits Name
    0.18,                     !- Hour 1
    0.18,                     !- Hour 2
    0.18,                     !- Hour 3
    0.18,                     !- Hour 4
    0.18,                     !- Hour 5
    0.18,                     !- Hour 6
    0.23,                     !- Hour 7
    0.42,                     !- Hour 8
    0.77,                     !- Hour 9
    0.77,                     !- Hour 10
    0.77,                     !- Hour 11
    0.77,                     !- Hour 12
    0.68,                     !- Hour 13
    0.77,                     !- Hour 14
    0.77,                     !- Hour 15
    0.77,                     !- Hour 16
    0.77,                     !- Hour 17
    0.61,                     !- Hour 18
    0.18,                     !- Hour 19
    0.18,                     !- Hour 20
    0.18,                     !- Hour 21
    0.18,                     !- Hour 22
    0.18,                     !- Hour 23
    0.18;                     !- Hour 24

Schedule:Day:Hourly,
    Office Light WEH,         !- Name
    Fraction,                 !- Schedule Type Limits Name
    0.18,                     !- Hour 1
    0.18,                     !- Hour 2
    0.18,                     !- Hour 3
    0.18,                     !- Hour 4
    0.18,                     !- Hour 5
    0.18,                     !- Hour 6
    0.18,                     !- Hour 7
    0.18,                     !- Hour 8
    0.18,                     !- Hour 9
    0.18,                     !- Hour 10
    0.18,                     !- Hour 11
    0.18,                     !- Hour 12
    0.18,                     !- Hour 13
    0.18,                     !- Hour 14
    0.18,                     !- Hour 15
    0.18,                     !- Hour 16
    0.18,                     !- Hour 17
    0.18,                     !- Hour 18
    0.18,                     !- Hour 19
    0.18,                     !- Hour 20
    0.18,                     !- Hour 21
    0.18,                     !- Hour 22
    0.18,                     !- Hour 23
    0.18;                     !- Hour 24

Schedule:Day:Hourly,
    Office Infiltration WD,    !- Name
    Any Number,               !- Schedule Type Limits Name
    1.0,                      !- Hour 1
    1.0,                      !- Hour 2
    1.0,                      !- Hour 3
    1.0,                      !- Hour 4
    1.0,                      !- Hour 5
    1.0,                      !- Hour 6
    1.0,                      !- Hour 7
    1.25,                     !- Hour 8
    1.25,                     !- Hour 9
    0.5,                      !- Hour 10
    0.5,                      !- Hour 11
    0.5,                      !- Hour 12
    0.5,                      !- Hour 13
    0.5,                      !- Hour 14
    0.5,                      !- Hour 15
    0.5,                      !- Hour 16
    1.25,                     !- Hour 17
    1.25,                     !- Hour 18
    1.0,                      !- Hour 19
    1.0,                      !- Hour 20
    1.0,                      !- Hour 21
    1.0,                      !- Hour 22
    1.0,                      !- Hour 23
    1.0;                      !- Hour 24

Schedule:Day:Hourly,
    Office Infiltration WEH,    !- Name
    Fraction,                 !- Schedule Type Limits Name
    1.0,                      !- Hour 1
    1.0,                      !- Hour 2
    1.0,                      !- Hour 3
    1.0,                      !- Hour 4
    1.0,                      !- Hour 5
    1.0,                      !- Hour 6
    1.0,                      !- Hour 7
    1.0,                      !- Hour 8
    1.0,                      !- Hour 9
    1.0,                      !- Hour 10
    1.0,                      !- Hour 11
    1.0,                      !- Hour 12
    1.0,                      !- Hour 13
    1.0,                      !- Hour 14
    1.0,                      !- Hour 15
    1.0,                      !- Hour 16
    1.0,                      !- Hour 17
    1.0,                      !- Hour 18
    1.0,                      !- Hour 19
    1.0,                      !- Hour 20
    1.0,                      !- Hour 21
    1.0,                      !- Hour 22
    1.0,                      !- Hour 23
    1.0;                      !- Hour 24

Schedule:Day:Hourly,
    Office Heating WD_YES_OPTIMUM,    !- Name
    Temperature,              !- Schedule Type Limits Name
    15.6,                     !- Hour 1
    15.6,                     !- Hour 2
    15.6,                     !- Hour 3
    15.6,                     !- Hour 4
    15.6,                     !- Hour 5
    15.6,                     !- Hour 6
    17.8,                     !- Hour 7
    20.0,                     !- Hour 8
    21.1,                     !- Hour 9
    21.1,                     !- Hour 10
    21.1,                     !- Hour 11
    21.1,                     !- Hour 12
    21.1,                     !- Hour 13
    21.1,                     !- Hour 14
    21.1,                     !- Hour 15
    21.1,                     !- Hour 16
    21.1,                     !- Hour 17
    21.1,                     !- Hour 18
    15.6,                     !- Hour 19
    15.6,                     !- Hour 20
    15.6,                     !- Hour 21
    15.6,                     !- Hour 22
    15.6,                     !- Hour 23
    15.6;                     !- Hour 24

Schedule:Day:Hourly,
    Office Heating WD_NO_OPTIMUM,    !- Name
    Temperature,              !- Schedule Type Limits Name
    15.6,                     !- Hour 1
    15.6,                     !- Hour 2
    15.6,                     !- Hour 3
    15.6,                     !- Hour 4
    15.6,                     !- Hour 5
    15.6,                     !- Hour 6
    21.1,                     !- Hour 7
    21.1,                     !- Hour 8
    21.1,                     !- Hour 9
    21.1,                     !- Hour 10
    21.1,                     !- Hour 11
    21.1,                     !- Hour 12
    21.1,                     !- Hour 13
    21.1,                     !- Hour 14
    21.1,                     !- Hour 15
    21.1,                     !- Hour 16
    21.1,                     !- Hour 17
    21.1,                     !- Hour 18
    15.6,                     !- Hour 19
    15.6,                     !- Hour 20
    15.6,                     !- Hour 21
    15.6,                     !- Hour 22
    15.6,                     !- Hour 23
    15.6;                     !- Hour 24

Schedule:Day:Hourly,
    Office Heating WEH,       !- Name
    Temperature,              !- Schedule Type Limits Name
    15.6,                     !- Hour 1
    15.6,                     !- Hour 2
    15.6,                     !- Hour 3
    15.6,                     !- Hour 4
    15.6,                     !- Hour 5
    15.6,                     !- Hour 6
    15.6,                     !- Hour 7
    15.6,                     !- Hour 8
    15.6,                     !- Hour 9
    15.6,                     !- Hour 10
    15.6,                     !- Hour 11
    15.6,                     !- Hour 12
    15.6,                     !- Hour 13
    15.6,                     !- Hour 14
    15.6,                     !- Hour 15
    15.6,                     !- Hour 16
    15.6,                     !- Hour 17
    15.6,                     !- Hour 18
    15.6,                     !- Hour 19
    15.6,                     !- Hour 20
    15.6,                     !- Hour 21
    15.6,                     !- Hour 22
    15.6,                     !- Hour 23
    15.6;                     !- Hour 24

Schedule:Day:Hourly,
    Office Cooling WD_YES_OPTIMUM,    !- Name
    Temperature,              !- Schedule Type Limits Name
    29.4,                     !- Hour 1
    29.4,                     !- Hour 2
    29.4,                     !- Hour 3
    29.4,                     !- Hour 4
    29.4,                     !- Hour 5
    29.4,                     !- Hour 6
    27.8,                     !- Hour 7
    25.6,                     !- Hour 8
    23.9,                     !- Hour 9
    23.9,                     !- Hour 10
    23.9,                     !- Hour 11
    23.9,                     !- Hour 12
    23.9,                     !- Hour 13
    23.9,                     !- Hour 14
    23.9,                     !- Hour 15
    23.9,                     !- Hour 16
    23.9,                     !- Hour 17
    23.9,                     !- Hour 18
    29.4,                     !- Hour 19
    29.4,                     !- Hour 20
    29.4,                     !- Hour 21
    29.4,                     !- Hour 22
    29.4,                     !- Hour 23
    29.4;                     !- Hour 24

Schedule:Day:Hourly,
    Office Cooling WD_NO_OPTIMUM,    !- Name
    Temperature,              !- Schedule Type Limits Name
    29.4,                     !- Hour 1
    29.4,                     !- Hour 2
    29.4,                     !- Hour 3
    29.4,                     !- Hour 4
    29.4,                     !- Hour 5
    29.4,                     !- Hour 6
    23.9,                     !- Hour 7
    23.9,                     !- Hour 8
    23.9,                     !- Hour 9
    23.9,                     !- Hour 10
    23.9,                     !- Hour 11
    23.9,                     !- Hour 12
    23.9,                     !- Hour 13
    23.9,                     !- Hour 14
    23.9,                     !- Hour 15
    23.9,                     !- Hour 16
    23.9,                     !- Hour 17
    23.9,                     !- Hour 18
    29.4,                     !- Hour 19
    29.4,                     !- Hour 20
    29.4,                     !- Hour 21
    29.4,                     !- Hour 22
    29.4,                     !- Hour 23
    29.4;                     !- Hour 24

Schedule:Day:Hourly,
    Office Cooling WD_NO_SETBACK,    !- Name
    Temperature,              !- Schedule Type Limits Name
    23.9,                     !- Hour 1
    23.9,                     !- Hour 2
    23.9,                     !- Hour 3
    23.9,                     !- Hour 4
    23.9,                     !- Hour 5
    23.9,                     !- Hour 6
    23.9,                     !- Hour 7
    23.9,                     !- Hour 8
    23.9,                     !- Hour 9
    23.9,                     !- Hour 10
    23.9,                     !- Hour 11
    23.9,                     !- Hour 12
    23.9,                     !- Hour 13
    23.9,                     !- Hour 14
    23.9,                     !- Hour 15
    23.9,                     !- Hour 16
    23.9,                     !- Hour 17
    23.9,                     !- Hour 18
    23.9,                     !- Hour 19
    23.9,                     !- Hour 20
    23.9,                     !- Hour 21
    23.9,                     !- Hour 22
    23.9,                     !- Hour 23
    23.9;                     !- Hour 24

Schedule:Day:Hourly,
    Office Cooling WEH,       !- Name
    Temperature,              !- Schedule Type Limits Name
    29.4,                     !- Hour 1
    29.4,                     !- Hour 2
    29.4,                     !- Hour 3
    29.4,                     !- Hour 4
    29.4,                     !- Hour 5
    29.4,                     !- Hour 6
    29.4,                     !- Hour 7
    29.4,                     !- Hour 8
    29.4,                     !- Hour 9
    29.4,                     !- Hour 10
    29.4,                     !- Hour 11
    29.4,                     !- Hour 12
    29.4,                     !- Hour 13
    29.4,                     !- Hour 14
    29.4,                     !- Hour 15
    29.4,                     !- Hour 16
    29.4,                     !- Hour 17
    29.4,                     !- Hour 18
    29.4,                     !- Hour 19
    29.4,                     !- Hour 20
    29.4,                     !- Hour 21
    29.4,                     !- Hour 22
    29.4,                     !- Hour 23
    29.4;                     !- Hour 24

Schedule:Day:Hourly,
    Office FAN WD,            !- Name
    Fraction,                 !- Schedule Type Limits Name
    0.0,                      !- Hour 1
    0.0,                      !- Hour 2
    0.0,                      !- Hour 3
    0.0,                      !- Hour 4
    0.0,                      !- Hour 5
    0.0,                      !- Hour 6
    0.0,                      !- Hour 7
    1.0,                      !- Hour 8
    1.0,                      !- Hour 9
    1.0,                      !- Hour 10
    1.0,                      !- Hour 11
    1.0,                      !- Hour 12
    1.0,                      !- Hour 13
    1.0,                      !- Hour 14
    1.0,                      !- Hour 15
    1.0,                      !- Hour 16
    1.0,                      !- Hour 17
    1.0,                      !- Hour 18
    0.0,                      !- Hour 19
    0.0,                      !- Hour 20
    0.0,                      !- Hour 21
    0.0,                      !- Hour 22
    0.0,                      !- Hour 23
    0.0;                      !- Hour 24

Schedule:Day:Hourly,
    Office FAN WEH,           !- Name
    Fraction,                 !- Schedule Type Limits Name
    0.0,                      !- Hour 1
    0.0,                      !- Hour 2
    0.0,                      !- Hour 3
    0.0,                      !- Hour 4
    0.0,                      !- Hour 5
    0.0,                      !- Hour 6
    0.0,                      !- Hour 7
    0.0,                      !- Hour 8
    0.0,                      !- Hour 9
    0.0,                      !- Hour 10
    0.0,                      !- Hour 11
    0.0,                      !- Hour 12
    0.0,                      !- Hour 13
    0.0,                      !- Hour 14
    0.0,                      !- Hour 15
    0.0,                      !- Hour 16
    0.0,                      !- Hour 17
    0.0,                      !- Hour 18
    0.0,                      !- Hour 19
    0.0,                      !- Hour 20
    0.0,                      !- Hour 21
    0.0,                      !- Hour 22
    0.0,                      !- Hour 23
    0.0;                      !- Hour 24

Schedule:Day:Hourly,
    Office DHW WD,            !- Name
    Fraction,                 !- Schedule Type Limits Name
    0.0,                      !- Hour 1
    0.0,                      !- Hour 2
    0.0,                      !- Hour 3
    0.0,                      !- Hour 4
    0.0,                      !- Hour 5
    0.0,                      !- Hour 6
    0.05,                     !- Hour 7
    0.101,                    !- Hour 8
    0.399,                    !- Hour 9
    0.501,                    !- Hour 10
    0.501,                    !- Hour 11
    0.696,                    !- Hour 12
    0.9,                      !- Hour 13
    0.798,                    !- Hour 14
    0.696,                    !- Hour 15
    0.798,                    !- Hour 16
    0.297,                    !- Hour 17
    0.05,                     !- Hour 18
    0.0,                      !- Hour 19
    0.0,                      !- Hour 20
    0.0,                      !- Hour 21
    0.0,                      !- Hour 22
    0.0,                      !- Hour 23
    0.0;                      !- Hour 24

Schedule:Day:Hourly,
    Office DHW SUNDAY,        !- Name
    Fraction,                 !- Schedule Type Limits Name
    0.0,                      !- Hour 1
    0.0,                      !- Hour 2
    0.0,                      !- Hour 3
    0.0,                      !- Hour 4
    0.0,                      !- Hour 5
    0.0,                      !- Hour 6
    0.015,                    !- Hour 7
    0.015,                    !- Hour 8
    0.015,                    !- Hour 9
    0.015,                    !- Hour 10
    0.015,                    !- Hour 11
    0.015,                    !- Hour 12
    0.015,                    !- Hour 13
    0.015,                    !- Hour 14
    0.015,                    !- Hour 15
    0.015,                    !- Hour 16
    0.015,                    !- Hour 17
    0.015,                    !- Hour 18
    0.0,                      !- Hour 19
    0.0,                      !- Hour 20
    0.0,                      !- Hour 21
    0.0,                      !- Hour 22
    0.0,                      !- Hour 23
    0.0;                      !- Hour 24

Schedule:Day:Hourly,
    Office DHW WEH,           !- Name
    Fraction,                 !- Schedule Type Limits Name
    0.015,                    !- Hour 1
    0.015,                    !- Hour 2
    0.015,                    !- Hour 3
    0.015,                    !- Hour 4
    0.015,                    !- Hour 5
    0.015,                    !- Hour 6
    0.015,                    !- Hour 7
    0.015,                    !- Hour 8
    0.015,                    !- Hour 9
    0.015,                    !- Hour 10
    0.015,                    !- Hour 11