!-Generator IDFEditor 1.50
!-Option SortedOrder

!-NOTE: All comments with '!-' are ignored by the IDFEditor and are generated automatically.
!-      Use '!' comments if they need to be retained when using the IDFEditor.


!-   ===========  ALL OBJECTS IN CLASS: VERSION ===========

Version,
    9.1;                     !- Version Identifier


!-   ===========  ALL OBJECTS IN CLASS: SIMULATIONCONTROL ===========

SimulationControl,
    No,                      !- Do Zone Sizing Calculation
    No,                      !- Do System Sizing Calculation
    No,                      !- Do Plant Sizing Calculation
    Yes,                     !- Run Simulation for Sizing Periods
    Yes;                     !- Run Simulation for Weather File Run Periods


!-   ===========  ALL OBJECTS IN CLASS: BUILDING ===========

Building,
    Building 1,              !- Name
    ,                        !- North Axis {deg}
    ,                        !- Terrain
    ,                        !- Loads Convergence Tolerance Value
    ,                        !- Temperature Convergence Tolerance Value {deltaC}
    ,                        !- Solar Distribution
    ,                        !- Maximum Number of Warmup Days
    ;                        !- Minimum Number of Warmup Days


!-   ===========  ALL OBJECTS IN CLASS: SHADOWCALCULATION ===========

ShadowCalculation,
    AverageOverDaysInFrequency,  !- Calculation Method
    20,                      !- Calculation Frequency
    15000;                   !- Maximum Figures in Shadow Overlap Calculations


!-   ===========  ALL OBJECTS IN CLASS: SURFACECONVECTIONALGORITHM:INSIDE ===========

SurfaceConvectionAlgorithm:Inside,
    Simple;                  !- Algorithm


!-   ===========  ALL OBJECTS IN CLASS: HEATBALANCEALGORITHM ===========

HeatBalanceAlgorithm,
    ConductionTransferFunction,  !- Algorithm
    200;                     !- Surface Temperature Upper Limit {C}


!-   ===========  ALL OBJECTS IN CLASS: TIMESTEP ===========

Timestep,
    6;                       !- Number of Timesteps per Hour


!-   ===========  ALL OBJECTS IN CLASS: SITE:LOCATION ===========

Site:Location,
    Site 1,                  !- Name
    0,                       !- Latitude {deg}
    0,                       !- Longitude {deg}
    0,                       !- Time Zone {hr}
    0;                       !- Elevation {m}


!-   ===========  ALL OBJECTS IN CLASS: RUNPERIOD ===========

RunPeriod,
    Run Period 1,            !- Name
    1,                       !- Begin Month
    1,                       !- Begin Day of Month
    2009,                    !- Begin Year
    12,                      !- End Month
    31,                      !- End Day of Month
    2009,                    !- End Year
    Thursday,                !- Day of Week for Start Day
    No,                      !- Use Weather File Holidays and Special Days
    No,                      !- Use Weather File Daylight Saving Period
    No,                      !- Apply Weekend Holiday Rule
    Yes,                     !- Use Weather File Rain Indicators
    Yes;                     !- Use Weather File Snow Indicators


!-   ===========  ALL OBJECTS IN CLASS: SCHEDULE:CONSTANT ===========

Schedule:Constant,
    Always On Discrete,      !- Name
    ,                        !- Schedule Type Limits Name
    1;                       !- Hourly Value

Schedule:Constant,
    Always Off Discrete,     !- Name
    ,                        !- Schedule Type Limits Name
    0;                       !- Hourly Value

Schedule:Constant,
    Always On Continuous,    !- Name
    ,                        !- Schedule Type Limits Name
    1;                       !- Hourly Value


!-   ===========  ALL OBJECTS IN CLASS: MATERIAL ===========

Material,
    4IN Concrete HW,         !- Name
    MediumRough,             !- Roughness
    0.1,                     !- Thickness {m}
    1.72959999999999,        !- Conductivity {W/m-K}
    2242.99999999999,        !- Density {kg/m3}
    836.999999999999,        !- Specific Heat {J/kg-K}
    0.9,                     !- Thermal Absorptance
    0.65,                    !- Solar Absorptance
    0.65;                    !- Visible Absorptance

Material,
    Insulation,              !- Name
    Smooth,                  !- Roughness
    0.1,                     !- Thickness {m}
    0.02436,                 !- Conductivity {W/m-K}
    1.2754,                  !- Density {kg/m3}
    100.5,                   !- Specific Heat {J/kg-K}
    0.9,                     !- Thermal Absorptance
    0.7,                     !- Solar Absorptance
    0.7;                     !- Visible Absorptance


!-   ===========  ALL OBJECTS IN CLASS: MATERIAL:NOMASS ===========

Material:NoMass,
    Ins_floor,               !- Name
    Smooth,                  !- Roughness
    72,                      !- Thermal Resistance {m2-K/W}
    0.9,                     !- Thermal Absorptance
    0.7,                     !- Solar Absorptance
    0.7;                     !- Visible Absorptance


!-   ===========  ALL OBJECTS IN CLASS: CONSTRUCTION ===========

Construction,
    floor,                   !- Name
    4IN Concrete HW,         !- Outside Layer
    Insulation,              !- Layer 2
    4IN Concrete HW;         !- Layer 3

Construction,
    roof,                    !- Name
    4IN Concrete HW,         !- Outside Layer
    Insulation,              !- Layer 2
    4IN Concrete HW;         !- Layer 3

Construction,
    wall,                    !- Name
    4IN Concrete HW,         !- Outside Layer
    Insulation,              !- Layer 2
    4IN Concrete HW;         !- Layer 3

Construction,
    ins_floor_constr,        !- Name
    Ins_floor;               !- Outside Layer


!-   ===========  ALL OBJECTS IN CLASS: GLOBALGEOMETRYRULES ===========

GlobalGeometryRules,
    UpperLeftCorner,         !- Starting Vertex Position
    Counterclockwise,        !- Vertex Entry Direction
    Relative,                !- Coordinate System
    Relative,                !- Daylighting Reference Point Coordinate System
    Relative;                !- Rectangular Surface Coordinate System


!-   ===========  ALL OBJECTS IN CLASS: ZONE ===========

Zone,
    Thermal Zone 1,          !- Name
    ,                        !- Direction of Relative North {deg}
    ,                        !- X Origin {m}
    ,                        !- Y Origin {m}
    ,                        !- Z Origin {m}
    ,                        !- Type
    1;                       !- Multiplier


!-   ===========  ALL OBJECTS IN CLASS: BUILDINGSURFACE:DETAILED ===========

BuildingSurface:Detailed,
    Face 0,                  !- Name
    Floor,                   !- Surface Type
    ins_floor_constr,        !- Construction Name
    Thermal Zone 1,          !- Zone Name
    Ground,                  !- Outside Boundary Condition
    ,                        !- Outside Boundary Condition Object
    NoSun,                   !- Sun Exposure
    NoWind,                  !- Wind Exposure
    ,                        !- View Factor to Ground
    ,                        !- Number of Vertices
    -85,                     !- Vertex 1 X-coordinate {m}
    95,                      !- Vertex 1 Y-coordinate {m}
    0,                       !- Vertex 1 Z-coordinate {m}
    -85,                     !- Vertex 2 X-coordinate {m}
    85,                      !- Vertex 2 Y-coordinate {m}
    0,                       !- Vertex 2 Z-coordinate {m}
    -95,                     !- Vertex 3 X-coordinate {m}
    85,                      !- Vertex 3 Y-coordinate {m}
    0,                       !- Vertex 3 Z-coordinate {m}
    -95,                     !- Vertex 4 X-coordinate {m}
    95,                      !- Vertex 4 Y-coordinate {m}
    0;                       !- Vertex 4 Z-coordinate {m}

BuildingSurface:Detailed,
    Face 1,                  !- Name
    Roof,                    !- Surface Type
    roof,                    !- Construction Name
    Thermal Zone 1,          !- Zone Name
    Outdoors,                !- Outside Boundary Condition
    ,                        !- Outside Boundary Condition Object
    SunExposed,              !- Sun Exposure
    WindExposed,             !- Wind Exposure
    ,                        !- View Factor to Ground
    ,                        !- Number of Vertices
    -95,                     !- Vertex 1 X-coordinate {m}
    95,                      !- Vertex 1 Y-coordinate {m}
    2.4384,                  !- Vertex 1 Z-coordinate {m}
    -95,                     !- Vertex 2 X-coordinate {m}
    85,                      !- Vertex 2 Y-coordinate {m}
    2.4384,                  !- Vertex 2 Z-coordinate {m}
    -85,                     !- Vertex 3 X-coordinate {m}
    85,                      !- Vertex 3 Y-coordinate {m}
    2.4384,                  !- Vertex 3 Z-coordinate {m}
    -85,                     !- Vertex 4 X-coordinate {m}
    95,                      !- Vertex 4 Y-coordinate {m}
    2.4384;                  !- Vertex 4 Z-coordinate {m}

BuildingSurface:Detailed,
    Face 2,                  !- Name
    Wall,                    !- Surface Type
    wall,                    !- Construction Name
    Thermal Zone 1,          !- Zone Name
    Outdoors,                !- Outside Boundary Condition
    ,                        !- Outside Boundary Condition Object
    SunExposed,              !- Sun Exposure
    WindExposed,             !- Wind Exposure
    ,                        !- View Factor to Ground
    ,                        !- Number of Vertices
    -85,                     !- Vertex 1 X-coordinate {m}
    95,                      !- Vertex 1 Y-coordinate {m}
    2.4384,                  !- Vertex 1 Z-coordinate {m}
    -85,                     !- Vertex 2 X-coordinate {m}
    85,                      !- Vertex 2 Y-coordinate {m}
    2.4384,                  !- Vertex 2 Z-coordinate {m}
    -85,                     !- Vertex 3 X-coordinate {m}
    85,                      !- Vertex 3 Y-coordinate {m}
    0,                       !- Vertex 3 Z-coordinate {m}
    -85,                     !- Vertex 4 X-coordinate {m}
    95,                      !- Vertex 4 Y-coordinate {m}
    0;                       !- Vertex 4 Z-coordinate {m}

BuildingSurface:Detailed,
    Face 3,                  !- Name
    Wall,                    !- Surface Type
    wall,                    !- Construction Name
    Thermal Zone 1,          !- Zone Name
    Outdoors,                !- Outside Boundary Condition
    ,                        !- Outside Boundary Condition Object
    SunExposed,              !- Sun Exposure
    WindExposed,             !- Wind Exposure
    ,                        !- View Factor to Ground
    ,                        !- Number of Vertices
    -85,                     !- Vertex 1 X-coordinate {m}
    85,                      !- Vertex 1 Y-coordinate {m}
    2.4384,                  !- Vertex 1 Z-coordinate {m}
    -95,                     !- Vertex 2 X-coordinate {m}
    85,                      !- Vertex 2 Y-coordinate {m}
    2.4384,                  !- Vertex 2 Z-coordinate {m}
    -95,                     !- Vertex 3 X-coordinate {m}
    85,                      !- Vertex 3 Y-coordinate {m}
    0,                       !- Vertex 3 Z-coordinate {m}
    -85,                     !- Vertex 4 X-coordinate {m}
    85,                      !- Vertex 4 Y-coordinate {m}
    0;                       !- Vertex 4 Z-coordinate {m}

BuildingSurface:Detailed,
    Face 4,                  !- Name
    Wall,                    !- Surface Type
    wall,                    !- Construction Name
    Thermal Zone 1,          !- Zone Name
    Outdoors,                !- Outside Boundary Condition
    ,                        !- Outside Boundary Condition Object
    SunExposed,              !- Sun Exposure
    WindExposed,             !- Wind Exposure
    ,                        !- View Factor to Ground
    ,                        !- Number of Vertices
    -95,                     !- Vertex 1 X-coordinate {m}
    85,                      !- Vertex 1 Y-coordinate {m}
    2.4384,                  !- Vertex 1 Z-coordinate {m}
    -95,                     !- Vertex 2 X-coordinate {m}
    95,                      !- Vertex 2 Y-coordinate {m}
    2.4384,                  !- Vertex 2 Z-coordinate {m}
    -95,                     !- Vertex 3 X-coordinate {m}
    95,                      !- Vertex 3 Y-coordinate {m}
    0,                       !- Vertex 3 Z-coordinate {m}
    -95,                     !- Vertex 4 X-coordinate {m}
    85,                      !- Vertex 4 Y-coordinate {m}
    0;                       !- Vertex 4 Z-coordinate {m}

BuildingSurface:Detailed,
    Face 5,                  !- Name
    Wall,                    !- Surface Type
    wall,                    !- Construction Name
    Thermal Zone 1,          !- Zone Name
    Outdoors,                !- Outside Boundary Condition
    ,                        !- Outside Boundary Condition Object
    SunExposed,              !- Sun Exposure
    WindExposed,             !- Wind Exposure
    ,                        !- View Factor to Ground
    ,                        !- Number of Vertices
    -95,                     !- Vertex 1 X-coordinate {m}
    95,                      !- Vertex 1 Y-coordinate {m}
    2.4384,                  !- Vertex 1 Z-coordinate {m}
    -85,                     !- Vertex 2 X-coordinate {m}
    95,                      !- Vertex 2 Y-coordinate {m}
    2.4384,                  !- Vertex 2 Z-coordinate {m}
    -85,                     !- Vertex 3 X-coordinate {m}
    95,                      !- Vertex 3 Y-coordinate {m}
    0,                       !- Vertex 3 Z-coordinate {m}
    -95,                     !- Vertex 4 X-coordinate {m}
    95,                      !- Vertex 4 Y-coordinate {m}
    0;                       !- Vertex 4 Z-coordinate {m}


!-   ===========  ALL OBJECTS IN CLASS: SIZING:PARAMETERS ===========

Sizing:Parameters,
    1.25,                    !- Heating Sizing Factor
    1.15;                    !- Cooling Sizing Factor


!-   ===========  ALL OBJECTS IN CLASS: OUTDOORAIR:NODE ===========

OutdoorAir:Node,
    Model Outdoor Air Node;  !- Name


!-   ===========  ALL OBJECTS IN CLASS: LIFECYCLECOST:PARAMETERS ===========

LifeCycleCost:Parameters,
    Life Cycle Cost Parameters,  !- Name
    EndOfYear,               !- Discounting Convention
    ConstantDollar,          !- Inflation Approach
    0.03,                    !- Real Discount Rate
    ,                        !- Nominal Discount Rate
    ,                        !- Inflation
    ,                        !- Base Date Month
    2011,                    !- Base Date Year
    ,                        !- Service Date Month
    2011,                    !- Service Date Year
    25,                      !- Length of Study Period in Years
    ,                        !- Tax rate
    None;                    !- Depreciation Method


!-   ===========  ALL OBJECTS IN CLASS: LIFECYCLECOST:NONRECURRINGCOST ===========

LifeCycleCost:NonrecurringCost,
    Default Cost,            !- Name
    Construction,            !- Category
    0,                       !- Cost
    ServicePeriod;           !- Start of Costs


!-   ===========  ALL OBJECTS IN CLASS: LIFECYCLECOST:USEPRICEESCALATION ===========

LifeCycleCost:UsePriceEscalation,
    U.S. Avg  Commercial-Electricity,  !- LCC Price Escalation Name
    Electricity,             !- Resource
    2011,                    !- Escalation Start Year
    January,                 !- Escalation Start Month
    0.9838,                  !- Year 1 Escalation
    0.9730,                  !- Year 2 Escalation
    0.9632,                  !- Year 3 Escalation
    0.9611,                  !- Year 4 Escalation
    0.9571,                  !- Year 5 Escalation
    0.9553,                  !- Year 6 Escalation
    0.9539,                  !- Year 7 Escalation
    0.9521,                  !- Year 8 Escalation
    0.9546,                  !- Year 9 Escalation
    0.9550,                  !- N11
    0.9553,                  !- N12
    0.9564,                  !- N13
    0.9575,                  !- N14
    0.9596,                  !- N15
    0.9618,                  !- N16
    0.9614,                  !- N17
    0.9618,                  !- N18
    0.9618,                  !- N19
    0.9593,                  !- N20
    0.9589,                  !- N21
    0.9607,                  !- N22
    0.9625,                  !- N23
    0.9650,                  !- N24
    0.9708,                  !- N25
    0.9751,                  !- N26
    0.9762,                  !- N27
    0.9766,                  !- N28
    0.9766,                  !- N29
    0.9769,                  !- N30
    0.9773;                  !- N31

LifeCycleCost:UsePriceEscalation,
    U.S. Avg  Commercial-Distillate Oil,  !- LCC Price Escalation Name
    FuelOil#1,               !- Resource
    2011,                    !- Escalation Start Year
    January,                 !- Escalation Start Month
    0.9714,                  !- Year 1 Escalation
    0.9730,                  !- Year 2 Escalation
    0.9942,                  !- Year 3 Escalation
    1.0164,                  !- Year 4 Escalation
    1.0541,                  !- Year 5 Escalation
    1.0928,                  !- Year 6 Escalation
    1.1267,                  !- Year 7 Escalation
    1.1580,                  !- Year 8 Escalation
    1.1792,                  !- Year 9 Escalation
    1.1967,                  !- N11
    1.2200,                  !- N12
    1.2333,                  !- N13
    1.2566,                  !- N14
    1.2709,                  !- N15
    1.2826,                  !- N16
    1.2985,                  !- N17
    1.3102,                  !- N18
    1.3250,                  !- N19
    1.3261,                  !- N20
    1.3282,                  !- N21
    1.3324,                  !- N22
    1.3356,                  !- N23
    1.3431,                  !- N24
    1.3510,                  !- N25
    1.3568,                  !- N26
    1.3606,                  !- N27
    1.3637,                  !- N28
    1.3674,                  !- N29
    1.3706,                  !- N30
    1.3743;                  !- N31

LifeCycleCost:UsePriceEscalation,
    U.S. Avg  Commercial-Residual Oil,  !- LCC Price Escalation Name
    FuelOil#2,               !- Resource
    2011,                    !- Escalation Start Year
    January,                 !- Escalation Start Month
    0.8469,                  !- Year 1 Escalation
    0.8257,                  !- Year 2 Escalation
    0.8681,                  !- Year 3 Escalation
    0.8988,                  !- Year 4 Escalation
    0.9289,                  !- Year 5 Escalation
    0.9604,                  !- Year 6 Escalation
    0.9897,                  !- Year 7 Escalation
    1.0075,                  !- Year 8 Escalation
    1.0314,                  !- Year 9 Escalation
    1.0554,                  !- N11
    1.0861,                  !- N12
    1.1278,                  !- N13
    1.1497,                  !- N14
    1.1620,                  !- N15
    1.1743,                  !- N16
    1.1852,                  !- N17
    1.1948,                  !- N18
    1.2037,                  !- N19
    1.2071,                  !- N20
    1.2119,                  !- N21
    1.2139,                  !- N22
    1.2194,                  !- N23
    1.2276,                  !- N24
    1.2365,                  !- N25
    1.2420,                  !- N26
    1.2461,                  !- N27
    1.2509,                  !- N28
    1.2550,                  !- N29
    1.2591,                  !- N30
    1.2638;                  !- N31

LifeCycleCost:UsePriceEscalation,
    U.S. Avg  Commercial-Natural gas,  !- LCC Price Escalation Name
    NaturalGas,              !- Resource
    2011,                    !- Escalation Start Year
    January,                 !- Escalation Start Month
    0.9823,                  !- Year 1 Escalation
    0.9557,                  !- Year 2 Escalation
    0.9279,                  !- Year 3 Escalation
    0.9257,                  !- Year 4 Escalation
    0.9346,                  !- Year 5 Escalation
    0.9412,                  !- Year 6 Escalation
    0.9512,                  !- Year 7 Escalation
    0.9645,                  !- Year 8 Escalation
    0.9856,                  !- Year 9 Escalation
    1.0067,                  !- N11
    1.0222,                  !- N12
    1.0410,                  !- N13
    1.0610,                  !- N14
    1.0787,                  !- N15
    1.0942,                  !- N16
    1.1098,                  !- N17
    1.1220,                  !- N18
    1.1308,                  !- N19
    1.1386,                  !- N20
    1.1486,                  !- N21
    1.1619,                  !- N22
    1.1763,                  !- N23
    1.1918,                  !- N24
    1.2118,                  !- N25
    1.2284,                  !- N26
    1.2439,                  !- N27
    1.2605,                  !- N28
    1.2772,                  !- N29
    1.2938,                  !- N30
    1.3115;                  !- N31

LifeCycleCost:UsePriceEscalation,
    U.S. Avg  Commercial-Coal,  !- LCC Price Escalation Name
    Coal,                    !- Resource
    2011,                    !- Escalation Start Year
    January,                 !- Escalation Start Month
    0.9970,                  !- Year 1 Escalation
    1.0089,                  !- Year 2 Escalation
    1.0089,                  !- Year 3 Escalation
    0.9941,                  !- Year 4 Escalation
    0.9941,                  !- Year 5 Escalation
    1.0000,                  !- Year 6 Escalation
    1.0030,                  !- Year 7 Escalation
    1.0059,                  !- Year 8 Escalation
    1.0089,                  !- Year 9 Escalation
    1.0119,                  !- N11
    1.0148,                  !- N12
    1.0178,                  !- N13
    1.0208,                  !- N14
    1.0267,                  !- N15
    1.0297,                  !- N16
    1.0356,                  !- N17
    1.0415,                  !- N18
    1.0534,                  !- N19
    1.0564,                  !- N20
    1.0593,                  !- N21
    1.0653,                  !- N22
    1.0712,                  !- N23
    1.0742,                  !- N24
    1.0801,                  !- N25
    1.0831,                  !- N26
    1.0831,                  !- N27
    1.0861,                  !- N28
    1.0890,                  !- N29
    1.0920,                  !- N30
    1.0950;                  !- N31


!-   ===========  ALL OBJECTS IN CLASS: OUTPUT:VARIABLEDICTIONARY ===========

Output:VariableDictionary,
    IDF,                     !- Key Field
    Unsorted;                !- Sort Option


!-   ===========  ALL OBJECTS IN CLASS: OUTPUT:TABLE:SUMMARYREPORTS ===========

Output:Table:SummaryReports,
    AllSummary;              !- Report 1 Name


!-   ===========  ALL OBJECTS IN CLASS: OUTPUTCONTROL:TABLE:STYLE ===========

OutputControl:Table:Style,
    HTML;                    !- Column Separator


!-   ===========  ALL OBJECTS IN CLASS: OUTPUT:VARIABLE ===========

Output:Variable,
    *,                       !- Key Value
    Baseboard Electric Energy,  !- Variable Name
    Timestep;                !- Reporting Frequency

Output:Variable,
    *,                       !- Key Value
    Site Outdoor Air Drybulb Temperature,  !- Variable Name
    Timestep;                !- Reporting Frequency

Output:Variable,
    *,                       !- Key Value
    Zone Air Temperature,    !- Variable Name
    Timestep;                !- Reporting Frequency


!-   ===========  ALL OBJECTS IN CLASS: OUTPUT:METER ===========

Output:Meter,
    InteriorEquipment:Electricity,  !- Key Name
    Timestep;                !- Reporting Frequency

Output:Meter,
    InteriorLights:Electricity,  !- Key Name
    Timestep;                !- Reporting Frequency

Output:Meter,
    Cooling:EnergyTransfer,  !- Key Name
    Timestep;                !- Reporting Frequency


!-   ===========  ALL OBJECTS IN CLASS: OUTPUT:SQLITE ===========

Output:SQLite,
    SimpleAndTabular;        !- Option Type

