!-Generator IDFEditor 1.50
!-Option SortedOrder

!-NOTE: All comments with '!-' are ignored by the IDFEditor and are generated automatically.
!-      Use '!' comments if they need to be retained when using the IDFEditor.


!-   ===========  ALL OBJECTS IN CLASS: VERSION ===========

Version,
    8.9;                     !- Version Identifier


!-   ===========  ALL OBJECTS IN CLASS: SIMULATIONCONTROL ===========

SimulationControl,
    Yes,                     !- Do Zone Sizing Calculation
    Yes,                     !- Do System Sizing Calculation
    Yes,                     !- Do Plant Sizing Calculation
    No,                      !- Run Simulation for Sizing Periods
    Yes;                     !- Run Simulation for Weather File Run Periods


!-   ===========  ALL OBJECTS IN CLASS: BUILDING ===========

Building,
    NECB 2011-MidriseApartment-NECB HDD Method-CAN_PQ_Montreal.Intl.AP.716270_CWEC.epw created: 2017-06-30 14:23:38 +0000,  !- Name
    0,                       !- North Axis {deg}
    City,                    !- Terrain
    0.04,                    !- Loads Convergence Tolerance Value
    0.4,                     !- Temperature Convergence Tolerance Value {deltaC}
    FullExterior,            !- Solar Distribution
    25,                      !- Maximum Number of Warmup Days
    6;                       !- Minimum Number of Warmup Days


!-   ===========  ALL OBJECTS IN CLASS: SHADOWCALCULATION ===========

ShadowCalculation,
    AverageOverDaysInFrequency,  !- Calculation Method
    20,                      !- Calculation Frequency
    15000;                   !- Maximum Figures in Shadow Overlap Calculations


!-   ===========  ALL OBJECTS IN CLASS: SURFACECONVECTIONALGORITHM:INSIDE ===========

SurfaceConvectionAlgorithm:Inside,
    TARP;                    !- Algorithm


!-   ===========  ALL OBJECTS IN CLASS: SURFACECONVECTIONALGORITHM:OUTSIDE ===========

SurfaceConvectionAlgorithm:Outside,
    TARP;                    !- Algorithm


!-   ===========  ALL OBJECTS IN CLASS: HEATBALANCEALGORITHM ===========

HeatBalanceAlgorithm,
    ConductionTransferFunction,  !- Algorithm
    200;                     !- Surface Temperature Upper Limit {C}


!-   ===========  ALL OBJECTS IN CLASS: TIMESTEP ===========

Timestep,
    4;                       !- Number of Timesteps per Hour


!-   ===========  ALL OBJECTS IN CLASS: SITE:LOCATION ===========

Site:Location,
    Montreal-Trudeau Intl AP,!- Name
    45.471,                  !- Latitude {deg}
    -73.741,                 !- Longitude {deg}
    -5,                      !- Time Zone {hr}
    36;                      !- Elevation {m}


!-   ===========  ALL OBJECTS IN CLASS: SIZINGPERIOD:DESIGNDAY ===========

SizingPeriod:DesignDay,
    Montreal Int'l Ann Clg .4% Condns DB=>MWB,  !- Name
    7,                       !- Month
    21,                      !- Day of Month
    SummerDesignDay,         !- Day Type
    30,                      !- Maximum Dry-Bulb Temperature {C}
    9.3,                     !- Daily Dry-Bulb Temperature Range {deltaC}
    DefaultMultipliers,      !- Dry-Bulb Temperature Range Modifier Type
    ,                        !- Dry-Bulb Temperature Range Modifier Day Schedule Name
    Wetbulb,                 !- Humidity Condition Type
    22.1,                    !- Wetbulb or DewPoint at Maximum Dry-Bulb {C}
    ,                        !- Humidity Condition Day Schedule Name
    ,                        !- Humidity Ratio at Maximum Dry-Bulb {kgWater/kgDryAir}
    ,                        !- Enthalpy at Maximum Dry-Bulb {J/kg}
    ,                        !- Daily Wet-Bulb Temperature Range {deltaC}
    100893,                  !- Barometric Pressure {Pa}
    4.9,                     !- Wind Speed {m/s}
    220,                     !- Wind Direction {deg}
    No,                      !- Rain Indicator
    No,                      !- Snow Indicator
    No,                      !- Daylight Saving Time Indicator
    ASHRAETau,               !- Solar Model Indicator
    ,                        !- Beam Solar Day Schedule Name
    ,                        !- Diffuse Solar Day Schedule Name
    0.465,                   !- ASHRAE Clear Sky Optical Depth for Beam Irradiance (taub) {dimensionless}
    1.966;                   !- ASHRAE Clear Sky Optical Depth for Diffuse Irradiance (taud) {dimensionless}

SizingPeriod:DesignDay,
    Montreal Int'l Ann Clg .4% Condns WB=>MDB,  !- Name
    7,                       !- Month
    21,                      !- Day of Month
    SummerDesignDay,         !- Day Type
    28.1,                    !- Maximum Dry-Bulb Temperature {C}
    9.3,                     !- Daily Dry-Bulb Temperature Range {deltaC}
    DefaultMultipliers,      !- Dry-Bulb Temperature Range Modifier Type
    ,                        !- Dry-Bulb Temperature Range Modifier Day Schedule Name
    Wetbulb,                 !- Humidity Condition Type
    23.2,                    !- Wetbulb or DewPoint at Maximum Dry-Bulb {C}
    ,                        !- Humidity Condition Day Schedule Name
    ,                        !- Humidity Ratio at Maximum Dry-Bulb {kgWater/kgDryAir}
    ,                        !- Enthalpy at Maximum Dry-Bulb {J/kg}
    ,                        !- Daily Wet-Bulb Temperature Range {deltaC}
    100893,                  !- Barometric Pressure {Pa}
    4.9,                     !- Wind Speed {m/s}
    220,                     !- Wind Direction {deg}
    No,                      !- Rain Indicator
    No,                      !- Snow Indicator
    No,                      !- Daylight Saving Time Indicator
    ASHRAETau,               !- Solar Model Indicator
    ,                        !- Beam Solar Day Schedule Name
    ,                        !- Diffuse Solar Day Schedule Name
    0.465,                   !- ASHRAE Clear Sky Optical Depth for Beam Irradiance (taub) {dimensionless}
    1.966;                   !- ASHRAE Clear Sky Optical Depth for Diffuse Irradiance (taud) {dimensionless}

SizingPeriod:DesignDay,
    Montreal Int'l Ann Htg 99.6% Condns DB,  !- Name
    1,                       !- Month
    21,                      !- Day of Month
    WinterDesignDay,         !- Day Type
    -23.7,                   !- Maximum Dry-Bulb Temperature {C}
    0,                       !- Daily Dry-Bulb Temperature Range {deltaC}
    DefaultMultipliers,      !- Dry-Bulb Temperature Range Modifier Type
    ,                        !- Dry-Bulb Temperature Range Modifier Day Schedule Name
    Wetbulb,                 !- Humidity Condition Type
    -23.7,                   !- Wetbulb or DewPoint at Maximum Dry-Bulb {C}
    ,                        !- Humidity Condition Day Schedule Name
    ,                        !- Humidity Ratio at Maximum Dry-Bulb {kgWater/kgDryAir}
    ,                        !- Enthalpy at Maximum Dry-Bulb {J/kg}
    ,                        !- Daily Wet-Bulb Temperature Range {deltaC}
    100893,                  !- Barometric Pressure {Pa}
    3.9,                     !- Wind Speed {m/s}
    260,                     !- Wind Direction {deg}
    No,                      !- Rain Indicator
    No,                      !- Snow Indicator
    No,                      !- Daylight Saving Time Indicator
    ASHRAEClearSky,          !- Solar Model Indicator
    ,                        !- Beam Solar Day Schedule Name
    ,                        !- Diffuse Solar Day Schedule Name
    ,                        !- ASHRAE Clear Sky Optical Depth for Beam Irradiance (taub) {dimensionless}
    ,                        !- ASHRAE Clear Sky Optical Depth for Diffuse Irradiance (taud) {dimensionless}
    0;                       !- Sky Clearness


!-   ===========  ALL OBJECTS IN CLASS: RUNPERIOD ===========

RunPeriod,
    Run Period 1,            !- Name
    1,                       !- Begin Month
    1,                       !- Begin Day of Month
    12,                      !- End Month
    31,                      !- End Day of Month
    Sunday,                  !- Day of Week for Start Day
    No,                      !- Use Weather File Holidays and Special Days
    No,                      !- Use Weather File Daylight Saving Period
    Yes,                     !- Apply Weekend Holiday Rule
    Yes,                     !- Use Weather File Rain Indicators
    Yes,                     !- Use Weather File Snow Indicators
    1;                       !- Number of Times Runperiod to be Repeated


!-   ===========  ALL OBJECTS IN CLASS: SITE:GROUNDTEMPERATURE:BUILDINGSURFACE ===========

Site:GroundTemperature:BuildingSurface,
    19.527,                  !- January Ground Temperature {C}
    19.502,                  !- February Ground Temperature {C}
    19.536,                  !- March Ground Temperature {C}
    19.598,                  !- April Ground Temperature {C}
    20.002,                  !- May Ground Temperature {C}
    21.64,                   !- June Ground Temperature {C}
    22.225,                  !- July Ground Temperature {C}
    22.375,                  !- August Ground Temperature {C}
    21.449,                  !- September Ground Temperature {C}
    20.121,                  !- October Ground Temperature {C}
    19.802,                  !- November Ground Temperature {C}
    19.633;                  !- December Ground Temperature {C}


!-   ===========  ALL OBJECTS IN CLASS: SITE:WATERMAINSTEMPERATURE ===========

Site:WaterMainsTemperature,
    Correlation,             !- Calculation Method
    ,                        !- Temperature Schedule Name
    6.25,                    !- Annual Average Outdoor Air Temperature {C}
    30.2;                    !- Maximum Difference In Monthly Average Outdoor Air Temperatures {deltaC}


!-   ===========  ALL OBJECTS IN CLASS: SCHEDULETYPELIMITS ===========

ScheduleTypeLimits,
    Sp-G Corridor Sys-1 Flr-3 Sch-G HPlcmt-east ZN Thermostat Schedule Type Limits,  !- Name
    0,                       !- Lower Limit Value
    4,                       !- Upper Limit Value
    DISCRETE;                !- Numeric Type

ScheduleTypeLimits,
    Temperature,             !- Name
    ,                        !- Lower Limit Value
    ,                        !- Upper Limit Value
    Continuous,              !- Numeric Type
    temperature;             !- Unit Type

ScheduleTypeLimits,
    OnOff,                   !- Name
    0,                       !- Lower Limit Value
    1,                       !- Upper Limit Value
    Discrete,                !- Numeric Type
    availability;            !- Unit Type

ScheduleTypeLimits,
    Fractional,              !- Name
    0,                       !- Lower Limit Value
    1,                       !- Upper Limit Value
    Continuous;              !- Numeric Type

ScheduleTypeLimits,
    Sp-G N1 Apartment Sys-1 Flr-3 Sch-G HPlcmt-north ZN Thermostat Schedule Type Limits,  !- Name
    0,                       !- Lower Limit Value
    4,                       !- Upper Limit Value
    DISCRETE;                !- Numeric Type

ScheduleTypeLimits,
    Sp-G N2 Apartment Sys-1 Flr-3 Sch-G HPlcmt-north ZN Thermostat Schedule Type Limits,  !- Name
    0,                       !- Lower Limit Value
    4,                       !- Upper Limit Value
    DISCRETE;                !- Numeric Type

ScheduleTypeLimits,
    Sp-G NE Apartment Sys-1 Flr-3 Sch-G HPlcmt-north ZN Thermostat Schedule Type Limits,  !- Name
    0,                       !- Lower Limit Value
    4,                       !- Upper Limit Value
    DISCRETE;                !- Numeric Type

ScheduleTypeLimits,
    Sp-G NW Apartment Sys-1 Flr-3 Sch-G HPlcmt-north ZN Thermostat Schedule Type Limits,  !- Name
    0,                       !- Lower Limit Value
    4,                       !- Upper Limit Value
    DISCRETE;                !- Numeric Type

ScheduleTypeLimits,
    Sp-G S1 Apartment Sys-1 Flr-3 Sch-G HPlcmt-south ZN Thermostat Schedule Type Limits,  !- Name
    0,                       !- Lower Limit Value
    4,                       !- Upper Limit Value
    DISCRETE;                !- Numeric Type

ScheduleTypeLimits,
    Sp-G S2 Apartment Sys-1 Flr-3 Sch-G HPlcmt-south ZN Thermostat Schedule Type Limits,  !- Name
    0,                       !- Lower Limit Value
    4,                       !- Upper Limit Value
    DISCRETE;                !- Numeric Type

ScheduleTypeLimits,
    Sp-G SW Apartment Sys-1 Flr-3 Sch-G HPlcmt-south ZN Thermostat Schedule Type Limits,  !- Name
    0,                       !- Lower Limit Value
    4,                       !- Upper Limit Value
    DISCRETE;                !- Numeric Type

ScheduleTypeLimits,
    Sp-M Corridor Sys-1 Flr-1 Sch-G HPlcmt-east ZN Thermostat Schedule Type Limits,  !- Name
    0,                       !- Lower Limit Value
    4,                       !- Upper Limit Value
    DISCRETE;                !- Numeric Type

ScheduleTypeLimits,
    Sp-M N1 Apartment Sys-1 Flr-1 Sch-G HPlcmt-north ZN Thermostat Schedule Type Limits,  !- Name
    0,                       !- Lower Limit Value
    4,                       !- Upper Limit Value
    DISCRETE;                !- Numeric Type

ScheduleTypeLimits,
    Sp-M N2 Apartment Sys-1 Flr-1 Sch-G HPlcmt-north ZN Thermostat Schedule Type Limits,  !- Name
    0,                       !- Lower Limit Value
    4,                       !- Upper Limit Value
    DISCRETE;                !- Numeric Type

ScheduleTypeLimits,
    Sp-M NE Apartment Sys-1 Flr-1 Sch-G HPlcmt-north ZN Thermostat Schedule Type Limits,  !- Name
    0,                       !- Lower Limit Value
    4,                       !- Upper Limit Value
    DISCRETE;                !- Numeric Type

ScheduleTypeLimits,
    Sp-M NW Apartment Sys-1 Flr-1 Sch-G HPlcmt-north ZN Thermostat Schedule Type Limits,  !- Name
    0,                       !- Lower Limit Value
    4,                       !- Upper Limit Value
    DISCRETE;                !- Numeric Type

ScheduleTypeLimits,
    Sp-M S1 Apartment Sys-1 Flr-1 Sch-G HPlcmt-south ZN Thermostat Schedule Type Limits,  !- Name
    0,                       !- Lower Limit Value
    4,                       !- Upper Limit Value
    DISCRETE;                !- Numeric Type

ScheduleTypeLimits,
    Sp-M S2 Apartment Sys-1 Flr-1 Sch-G HPlcmt-south ZN Thermostat Schedule Type Limits,  !- Name
    0,                       !- Lower Limit Value
    4,                       !- Upper Limit Value
    DISCRETE;                !- Numeric Type

ScheduleTypeLimits,
    Sp-M SE Apartment Sys-1 Flr-1 Sch-G HPlcmt-south ZN Thermostat Schedule Type Limits,  !- Name
    0,                       !- Lower Limit Value
    4,                       !- Upper Limit Value
    DISCRETE;                !- Numeric Type

ScheduleTypeLimits,
    Sp-M SW Apartment Sys-1 Flr-1 Sch-G HPlcmt-south ZN Thermostat Schedule Type Limits,  !- Name
    0,                       !- Lower Limit Value
    4,                       !- Upper Limit Value
    DISCRETE;                !- Numeric Type

ScheduleTypeLimits,
    Sp-Office Sys-3 Flr-3 Sch-C HPlcmt-south ZN Thermostat Schedule Type Limits,  !- Name
    0,                       !- Lower Limit Value
    4,                       !- Upper Limit Value
    DISCRETE;                !- Numeric Type

ScheduleTypeLimits,
    Sp-T Corridor Sys-1 Flr-2 Sch-G HPlcmt-west ZN Thermostat Schedule Type Limits,  !- Name
    0,                       !- Lower Limit Value
    4,                       !- Upper Limit Value
    DISCRETE;                !- Numeric Type

ScheduleTypeLimits,
    Sp-T N1 Apartment Sys-1 Flr-2 Sch-G HPlcmt-north ZN Thermostat Schedule Type Limits,  !- Name
    0,                       !- Lower Limit Value
    4,                       !- Upper Limit Value
    DISCRETE;                !- Numeric Type

ScheduleTypeLimits,
    Sp-T N2 Apartment Sys-1 Flr-2 Sch-G HPlcmt-north ZN Thermostat Schedule Type Limits,  !- Name
    0,                       !- Lower Limit Value
    4,                       !- Upper Limit Value
    DISCRETE;                !- Numeric Type

ScheduleTypeLimits,
    Sp-T NE Apartment Sys-1 Flr-2 Sch-G HPlcmt-north ZN Thermostat Schedule Type Limits,  !- Name
    0,                       !- Lower Limit Value
    4,                       !- Upper Limit Value
    DISCRETE;                !- Numeric Type

ScheduleTypeLimits,
    Sp-T NW Apartment Sys-1 Flr-2 Sch-G HPlcmt-north ZN Thermostat Schedule Type Limits,  !- Name
    0,                       !- Lower Limit Value
    4,                       !- Upper Limit Value
    DISCRETE;                !- Numeric Type

ScheduleTypeLimits,
    Sp-T S1 Apartment Sys-1 Flr-2 Sch-G HPlcmt-south ZN Thermostat Schedule Type Limits,  !- Name
    0,                       !- Lower Limit Value
    4,                       !- Upper Limit Value
    DISCRETE;                !- Numeric Type

ScheduleTypeLimits,
    Sp-T S2 Apartment Sys-1 Flr-2 Sch-G HPlcmt-south ZN Thermostat Schedule Type Limits,  !- Name
    0,                       !- Lower Limit Value
    4,                       !- Upper Limit Value
    DISCRETE;                !- Numeric Type

ScheduleTypeLimits,
    Sp-T SE Apartment Sys-1 Flr-2 Sch-G HPlcmt-south ZN Thermostat Schedule Type Limits,  !- Name
    0,                       !- Lower Limit Value
    4,                       !- Upper Limit Value
    DISCRETE;                !- Numeric Type

ScheduleTypeLimits,
    Sp-T SW Apartment Sys-1 Flr-2 Sch-G HPlcmt-south ZN Thermostat Schedule Type Limits,  !- Name
    0,                       !- Lower Limit Value
    4,                       !- Upper Limit Value
    DISCRETE;                !- Numeric Type

ScheduleTypeLimits,
    ActivityLevel,           !- Name
    0,                       !- Lower Limit Value
    ,                        !- Upper Limit Value
    Continuous,              !- Numeric Type
    activitylevel;           !- Unit Type

ScheduleTypeLimits,
    Any Number;              !- Name

ScheduleTypeLimits,
    ON_OFF,                  !- Name
    0,                       !- Lower Limit Value
    1,                       !- Upper Limit Value
    DISCRETE,                !- Numeric Type
    dimensionless;           !- Unit Type

ScheduleTypeLimits,
    Temperature Schedule Type Limits,  !- Name
    0,                       !- Lower Limit Value
    100,                     !- Upper Limit Value
    Continuous,              !- Numeric Type
    temperature;             !- Unit Type

ScheduleTypeLimits,
    Temperature Schedule Type Limits 1,  !- Name
    0,                       !- Lower Limit Value
    100,                     !- Upper Limit Value
    Continuous,              !- Numeric Type
    temperature;             !- Unit Type

ScheduleTypeLimits,
    Velocity,                !- Name
    0,                       !- Lower Limit Value
    ,                        !- Upper Limit Value
    Continuous,              !- Numeric Type
    velocity;                !- Unit Type


!-   ===========  ALL OBJECTS IN CLASS: SCHEDULE:DAY:INTERVAL ===========

Schedule:Day:Interval,
    NECB-G-Thermostat Setpoint-Heating Sun|Hol Day,  !- Name
    Temperature,             !- Schedule Type Limits Name
    No,                      !- Interpolate to Timestep
    01:00,                   !- Time 1 {hh:mm}
    22,                      !- Value Until Time 1
    07:00,                   !- Time 2 {hh:mm}
    18,                      !- Value Until Time 2
    08:00,                   !- Time 3 {hh:mm}
    20,                      !- Value Until Time 3
    24:00,                   !- Time 4 {hh:mm}
    22;                      !- Value Until Time 4

Schedule:Day:Interval,
    NECB-G-Thermostat Setpoint-Heating Default|Wkdy Day,  !- Name
    Temperature,             !- Schedule Type Limits Name
    No,                      !- Interpolate to Timestep
    01:00,                   !- Time 1 {hh:mm}
    22,                      !- Value Until Time 1
    07:00,                   !- Time 2 {hh:mm}
    18,                      !- Value Until Time 2
    08:00,                   !- Time 3 {hh:mm}
    20,                      !- Value Until Time 3
    24:00,                   !- Time 4 {hh:mm}
    22;                      !- Value Until Time 4

Schedule:Day:Interval,
    NECB-G-Thermostat Setpoint-Heating Sat Day,  !- Name
    Temperature,             !- Schedule Type Limits Name
    No,                      !- Interpolate to Timestep
    01:00,                   !- Time 1 {hh:mm}
    22,                      !- Value Until Time 1
    07:00,                   !- Time 2 {hh:mm}
    18,                      !- Value Until Time 2
    08:00,                   !- Time 3 {hh:mm}
    20,                      !- Value Until Time 3
    24:00,                   !- Time 4 {hh:mm}
    22;                      !- Value Until Time 4

Schedule:Day:Interval,
    NECB-G-Thermostat Setpoint-Heating Default,  !- Name
    Temperature,             !- Schedule Type Limits Name
    No,                      !- Interpolate to Timestep
    01:00,                   !- Time 1 {hh:mm}
    22,                      !- Value Until Time 1
    07:00,                   !- Time 2 {hh:mm}
    18,                      !- Value Until Time 2
    08:00,                   !- Time 3 {hh:mm}
    20,                      !- Value Until Time 3
    24:00,                   !- Time 4 {hh:mm}
    22;                      !- Value Until Time 4

Schedule:Day:Interval,
    NECB-G-Thermostat Setpoint-Cooling Sun|Hol Day,  !- Name
    Temperature,             !- Schedule Type Limits Name
    No,                      !- Interpolate to Timestep
    24:00,                   !- Time 1 {hh:mm}
    24;                      !- Value Until Time 1

Schedule:Day:Interval,
    NECB-G-Thermostat Setpoint-Cooling Default|Wkdy Day,  !- Name
    Temperature,             !- Schedule Type Limits Name
    No,                      !- Interpolate to Timestep
    24:00,                   !- Time 1 {hh:mm}
    24;                      !- Value Until Time 1

Schedule:Day:Interval,
    NECB-G-Thermostat Setpoint-Cooling Sat Day,  !- Name
    Temperature,             !- Schedule Type Limits Name
    No,                      !- Interpolate to Timestep
    24:00,                   !- Time 1 {hh:mm}
    24;                      !- Value Until Time 1

Schedule:Day:Interval,
    NECB-G-Thermostat Setpoint-Cooling Default,  !- Name
    Temperature,             !- Schedule Type Limits Name
    No,                      !- Interpolate to Timestep
    24:00,                   !- Time 1 {hh:mm}
    24;                      !- Value Until Time 1

Schedule:Day:Interval,
    sunON_OFF_ALWAYS_OFF 1,  !- Name
    OnOff,                   !- Schedule Type Limits Name
    No,                      !- Interpolate to Timestep
    01:00,                   !- Time 1 {hh:mm}
    0,                       !- Value Until Time 1
    02:00,                   !- Time 2 {hh:mm}
    0,                       !- Value Until Time 2
    03:00,                   !- Time 3 {hh:mm}
    0,                       !- Value Until Time 3
    04:00,                   !- Time 4 {hh:mm}
    0,                       !- Value Until Time 4
    05:00,                   !- Time 5 {hh:mm}
    0,                       !- Value Until Time 5
    06:00,                   !- Time 6 {hh:mm}
    0,                       !- Value Until Time 6
    07:00,                   !- Time 7 {hh:mm}
    0,                       !- Value Until Time 7
    08:00,                   !- Time 8 {hh:mm}
    0,                       !- Value Until Time 8
    09:00,                   !- Time 9 {hh:mm}
    0,                       !- Value Until Time 9
    10:00,                   !- Time 10 {hh:mm}
    0,                       !- Value Until Time 10
    11:00,                   !- Time 11 {hh:mm}
    0,                       !- Value Until Time 11
    12:00,                   !- Time 12 {hh:mm}
    0,                       !- Value Until Time 12
    13:00,                   !- Time 13 {hh:mm}
    0,                       !- Value Until Time 13
    14:00,                   !- Time 14 {hh:mm}
    0,                       !- Value Until Time 14
    15:00,                   !- Time 15 {hh:mm}
    0,                       !- Value Until Time 15
    16:00,                   !- Time 16 {hh:mm}
    0,                       !- Value Until Time 16
    17:00,                   !- Time 17 {hh:mm}
    0,                       !- Value Until Time 17
    18:00,                   !- Time 18 {hh:mm}
    0,                       !- Value Until Time 18
    19:00,                   !- Time 19 {hh:mm}
    0,                       !- Value Until Time 19
    20:00,                   !- Time 20 {hh:mm}
    0,                       !- Value Until Time 20
    21:00,                   !- Time 21 {hh:mm}
    0,                       !- Value Until Time 21
    22:00,                   !- Time 22 {hh:mm}
    0,                       !- Value Until Time 22
    23:00,                   !- Time 23 {hh:mm}
    0,                       !- Value Until Time 23
    24:00,                   !- Time 24 {hh:mm}
    0;                       !- Value Until Time 24

Schedule:Day:Interval,
    wkdON_OFF_ALWAYS_OFF 1,  !- Name
    OnOff,                   !- Schedule Type Limits Name
    No,                      !- Interpolate to Timestep
    01:00,                   !- Time 1 {hh:mm}
    0,                       !- Value Until Time 1
    02:00,                   !- Time 2 {hh:mm}
    0,                       !- Value Until Time 2
    03:00,                   !- Time 3 {hh:mm}
    0,                       !- Value Until Time 3
    04:00,                   !- Time 4 {hh:mm}
    0,                       !- Value Until Time 4
    05:00,                   !- Time 5 {hh:mm}
    0,                       !- Value Until Time 5
    06:00,                   !- Time 6 {hh:mm}
    0,                       !- Value Until Time 6
    07:00,                   !- Time 7 {hh:mm}
    0,                       !- Value Until Time 7
    08:00,                   !- Time 8 {hh:mm}
    0,                       !- Value Until Time 8
    09:00,                   !- Time 9 {hh:mm}
    0,                       !- Value Until Time 9
    10:00,                   !- Time 10 {hh:mm}
    0,                       !- Value Until Time 10
    11:00,                   !- Time 11 {hh:mm}
    0,                       !- Value Until Time 11
    12:00,                   !- Time 12 {hh:mm}
    0,                       !- Value Until Time 12
    13:00,                   !- Time 13 {hh:mm}
    0,                       !- Value Until Time 13
    14:00,                   !- Time 14 {hh:mm}
    0,                       !- Value Until Time 14
    15:00,                   !- Time 15 {hh:mm}
    0,                       !- Value Until Time 15
    16:00,                   !- Time 16 {hh:mm}
    0,                       !- Value Until Time 16
    17:00,                   !- Time 17 {hh:mm}
    0,                       !- Value Until Time 17
    18:00,                   !- Time 18 {hh:mm}
    0,                       !- Value Until Time 18
    19:00,                   !- Time 19 {hh:mm}
    0,                       !- Value Until Time 19
    20:00,                   !- Time 20 {hh:mm}
    0,                       !- Value Until Time 20
    21:00,                   !- Time 21 {hh:mm}
    0,                       !- Value Until Time 21
    22:00,                   !- Time 22 {hh:mm}
    0,                       !- Value Until Time 22
    23:00,                   !- Time 23 {hh:mm}
    0,                       !- Value Until Time 23
    24:00,                   !- Time 24 {hh:mm}
    0;                       !- Value Until Time 24

Schedule:Day:Interval,
    satON_OFF_ALWAYS_OFF 1,  !- Name
    OnOff,                   !- Schedule Type Limits Name
    No,                      !- Interpolate to Timestep
    01:00,                   !- Time 1 {hh:mm}
    0,                       !- Value Until Time 1
    02:00,                   !- Time 2 {hh:mm}
    0,                       !- Value Until Time 2
    03:00,                   !- Time 3 {hh:mm}
    0,                       !- Value Until Time 3
    04:00,                   !- Time 4 {hh:mm}
    0,                       !- Value Until Time 4
    05:00,                   !- Time 5 {hh:mm}
    0,                       !- Value Until Time 5
    06:00,                   !- Time 6 {hh:mm}
    0,                       !- Value Until Time 6
    07:00,                   !- Time 7 {hh:mm}
    0,                       !- Value Until Time 7
    08:00,                   !- Time 8 {hh:mm}
    0,                       !- Value Until Time 8
    09:00,                   !- Time 9 {hh:mm}
    0,                       !- Value Until Time 9
    10:00,                   !- Time 10 {hh:mm}
    0,                       !- Value Until Time 10
    11:00,                   !- Time 11 {hh:mm}
    0,                       !- Value Until Time 11
    12:00,                   !- Time 12 {hh:mm}
    0,                       !- Value Until Time 12
    13:00,                   !- Time 13 {hh:mm}
    0,                       !- Value Until Time 13
    14:00,                   !- Time 14 {hh:mm}
    0,                       !- Value Until Time 14
    15:00,                   !- Time 15 {hh:mm}
    0,                       !- Value Until Time 15