!-Generator IDFEditor 1.50
!-Option SortedOrder
!-NOTE: All comments with '!-' are ignored by the IDFEditor and are generated automatically.
!-      Use '!' comments if they need to be retained when using the IDFEditor.
!-   ===========  ALL OBJECTS IN CLASS: VERSION ===========

  Version,9.2;

!-   ===========  ALL OBJECTS IN CLASS: SIMULATIONCONTROL ===========

  SimulationControl,
    Yes,                     !- Do Zone Sizing Calculation
    No,                      !- Do System Sizing Calculation
    No,                      !- Do Plant Sizing Calculation
    Yes,                     !- Run Simulation for Sizing Periods
    Yes;                     !- Run Simulation for Weather File Run Periods

!-   ===========  ALL OBJECTS IN CLASS: BUILDING ===========

  Building,
    Building 1,              !- Name
    ,                        !- North Axis {deg}
    ,                        !- Terrain
    ,                        !- Loads Convergence Tolerance Value
    ,                        !- Temperature Convergence Tolerance Value {deltaC}
    ,                        !- Solar Distribution
    ,                        !- Maximum Number of Warmup Days
    ;                        !- Minimum Number of Warmup Days

!-   ===========  ALL OBJECTS IN CLASS: SHADOWCALCULATION ===========

  ShadowCalculation,
    AverageOverDaysInFrequency,  !- Calculation Method
    20,                      !- Calculation Frequency
    15000;                   !- Maximum Figures in Shadow Overlap Calculations

!-   ===========  ALL OBJECTS IN CLASS: SURFACECONVECTIONALGORITHM:INSIDE ===========

  SurfaceConvectionAlgorithm:Inside,TARP;

!-   ===========  ALL OBJECTS IN CLASS: SURFACECONVECTIONALGORITHM:OUTSIDE ===========

  SurfaceConvectionAlgorithm:Outside,DOE-2;

!-   ===========  ALL OBJECTS IN CLASS: HEATBALANCEALGORITHM ===========

  HeatBalanceAlgorithm,ConductionTransferFunction,200;

!-   ===========  ALL OBJECTS IN CLASS: ZONEAIRHEATBALANCEALGORITHM ===========

  ZoneAirHeatBalanceAlgorithm,
    ThirdOrderBackwardDifference;  !- Algorithm

!-   ===========  ALL OBJECTS IN CLASS: ZONEAIRCONTAMINANTBALANCE ===========

  ZoneAirContaminantBalance,
    No;                      !- Carbon Dioxide Concentration

!-   ===========  ALL OBJECTS IN CLASS: ZONECAPACITANCEMULTIPLIER:RESEARCHSPECIAL ===========

  ZoneCapacitanceMultiplier:ResearchSpecial,
    Zone Capacitance Multiplier Research Special,  !- Name
    ,                        !- Zone or ZoneList Name
    ,                        !- Temperature Capacity Multiplier
    ,                        !- Humidity Capacity Multiplier
    ,                        !- Carbon Dioxide Capacity Multiplier
    ;                        !- Generic Contaminant Capacity Multiplier

!-   ===========  ALL OBJECTS IN CLASS: TIMESTEP ===========

  Timestep,6;

!-   ===========  ALL OBJECTS IN CLASS: CONVERGENCELIMITS ===========

  ConvergenceLimits,
    1;                       !- Minimum System Timestep {minutes}

!-   ===========  ALL OBJECTS IN CLASS: SITE:LOCATION ===========

  Site:Location,
    Site 1,                  !- Name
    0,                       !- Latitude {deg}
    0,                       !- Longitude {deg}
    0,                       !- Time Zone {hr}
    0;                       !- Elevation {m}

!-   ===========  ALL OBJECTS IN CLASS: SIZINGPERIOD:DESIGNDAY ===========

  SizingPeriod:DesignDay,
    Montreal Int'l Ann Clg .4% Condns DB=>MWB,  !- Name
    7,                       !- Month
    21,                      !- Day of Month
    SummerDesignDay,         !- Day Type
    30,                      !- Maximum Dry-Bulb Temperature {C}
    9.3,                     !- Daily Dry-Bulb Temperature Range {deltaC}
    DefaultMultipliers,      !- Dry-Bulb Temperature Range Modifier Type
    ,                        !- Dry-Bulb Temperature Range Modifier Day Schedule Name
    WetBulb,                 !- Humidity Condition Type
    22.1,                    !- Wetbulb or DewPoint at Maximum Dry-Bulb {C}
    ,                        !- Humidity Condition Day Schedule Name
    ,                        !- Humidity Ratio at Maximum Dry-Bulb {kgWater/kgDryAir}
    ,                        !- Enthalpy at Maximum Dry-Bulb {J/kg}
    ,                        !- Daily Wet-Bulb Temperature Range {deltaC}
    100893,                  !- Barometric Pressure {Pa}
    4.9,                     !- Wind Speed {m/s}
    220,                     !- Wind Direction {deg}
    No,                      !- Rain Indicator
    No,                      !- Snow Indicator
    No,                      !- Daylight Saving Time Indicator
    ASHRAETau,               !- Solar Model Indicator
    ,                        !- Beam Solar Day Schedule Name
    ,                        !- Diffuse Solar Day Schedule Name
    0.465,                   !- ASHRAE Clear Sky Optical Depth for Beam Irradiance (taub) {dimensionless}
    1.966;                   !- ASHRAE Clear Sky Optical Depth for Diffuse Irradiance (taud) {dimensionless}

  SizingPeriod:DesignDay,
    Montreal Int'l Ann Htg 99.6% Condns DB,  !- Name
    1,                       !- Month
    21,                      !- Day of Month
    WinterDesignDay,         !- Day Type
    -23.7,                   !- Maximum Dry-Bulb Temperature {C}
    0,                       !- Daily Dry-Bulb Temperature Range {deltaC}
    DefaultMultipliers,      !- Dry-Bulb Temperature Range Modifier Type
    ,                        !- Dry-Bulb Temperature Range Modifier Day Schedule Name
    WetBulb,                 !- Humidity Condition Type
    -23.7,                   !- Wetbulb or DewPoint at Maximum Dry-Bulb {C}
    ,                        !- Humidity Condition Day Schedule Name
    ,                        !- Humidity Ratio at Maximum Dry-Bulb {kgWater/kgDryAir}
    ,                        !- Enthalpy at Maximum Dry-Bulb {J/kg}
    ,                        !- Daily Wet-Bulb Temperature Range {deltaC}
    100893,                  !- Barometric Pressure {Pa}
    3.9,                     !- Wind Speed {m/s}
    260,                     !- Wind Direction {deg}
    No,                      !- Rain Indicator
    No,                      !- Snow Indicator
    No,                      !- Daylight Saving Time Indicator
    ASHRAEClearSky,          !- Solar Model Indicator
    ,                        !- Beam Solar Day Schedule Name
    ,                        !- Diffuse Solar Day Schedule Name
    ,                        !- ASHRAE Clear Sky Optical Depth for Beam Irradiance (taub) {dimensionless}
    ,                        !- ASHRAE Clear Sky Optical Depth for Diffuse Irradiance (taud) {dimensionless}
    0;                       !- Sky Clearness

!-   ===========  ALL OBJECTS IN CLASS: RUNPERIOD ===========

  RunPeriod,
    Run Period 1,            !- Name
    1,                       !- Begin Month
    1,                       !- Begin Day of Month
    2009,                    !- Begin Year
    12,                      !- End Month
    31,                      !- End Day of Month
    2009,                    !- End Year
    Thursday,                !- Day of Week for Start Day
    No,                      !- Use Weather File Holidays and Special Days
    No,                      !- Use Weather File Daylight Saving Period
    No,                      !- Apply Weekend Holiday Rule
    Yes,                     !- Use Weather File Rain Indicators
    Yes;                     !- Use Weather File Snow Indicators

!-   ===========  ALL OBJECTS IN CLASS: SCHEDULETYPELIMITS ===========

  ScheduleTypeLimits,
    Fractional,              !- Name
    0,                       !- Lower Limit Value
    1,                       !- Upper Limit Value
    Continuous;              !- Numeric Type

  ScheduleTypeLimits,
    Temperature,             !- Name
    ,                        !- Lower Limit Value
    ,                        !- Upper Limit Value
    Continuous,              !- Numeric Type
    temperature;             !- Unit Type

  ScheduleTypeLimits,
    Watt,                    !- Name
    ,                        !- Lower Limit Value
    ,                        !- Upper Limit Value
    Continuous,              !- Numeric Type
    ActivityLevel;           !- Unit Type

!-   ===========  ALL OBJECTS IN CLASS: SCHEDULE:DAY:INTERVAL ===========

  Schedule:Day:Interval,
    WaterUse Latent Fraction Schedule 5p Day,  !- Name
    Fractional,              !- Schedule Type Limits Name
    No,                      !- Interpolate to Timestep
    24:00,                   !- Time 1
    0.05;                    !- Value Until Time 1

  Schedule:Day:Interval,
    WaterUse Schedule 120F Day,  !- Name
    Temperature,             !- Schedule Type Limits Name
    No,                      !- Interpolate to Timestep
    24:00,                   !- Time 1
    48.8888888888889;        !- Value Until Time 1

  Schedule:Day:Interval,
    WaterUse Sensible Fraction Schedule 20p Day,  !- Name
    Fractional,              !- Schedule Type Limits Name
    No,                      !- Interpolate to Timestep
    24:00,                   !- Time 1
    0.2;                     !- Value Until Time 1

  Schedule:Day:Interval,
    Light_day_sch,           !- Name
    Fractional,              !- Schedule Type Limits Name
    No,                      !- Interpolate to Timestep
    24:00,                   !- Time 1
    0.5;                     !- Value Until Time 1

  Schedule:Day:Interval,
    Equip_day_sch,           !- Name
    Fractional,              !- Schedule Type Limits Name
    No,                      !- Interpolate to Timestep
    24:00,                   !- Time 1
    0.3;                     !- Value Until Time 1

  Schedule:Day:Interval,
    Activity_day_sch,        !- Name
    Watt,                    !- Schedule Type Limits Name
    No,                      !- Interpolate to Timestep
    24:00,                   !- Time 1
    100;                     !- Value Until Time 1

  Schedule:Day:Interval,
    People_day_sch,          !- Name
    Fractional,              !- Schedule Type Limits Name
    No,                      !- Interpolate to Timestep
    24:00,                   !- Time 1
    0.4;                     !- Value Until Time 1

  Schedule:Day:Interval,
    Heating_Setpoint_day,    !- Name
    Temperature,             !- Schedule Type Limits Name
    No,                      !- Interpolate to Timestep
    24:00,                   !- Time 1
    20;                      !- Value Until Time 1

!-   ===========  ALL OBJECTS IN CLASS: SCHEDULE:WEEK:DAILY ===========

  Schedule:Week:Daily,
    WaterUse Latent Fraction Schedule 5p Week Rule - Jan1-Dec31,  !- Name
    WaterUse Latent Fraction Schedule 5p Day,  !- Sunday Schedule:Day Name
    WaterUse Latent Fraction Schedule 5p Day,  !- Monday Schedule:Day Name
    WaterUse Latent Fraction Schedule 5p Day,  !- Tuesday Schedule:Day Name
    WaterUse Latent Fraction Schedule 5p Day,  !- Wednesday Schedule:Day Name
    WaterUse Latent Fraction Schedule 5p Day,  !- Thursday Schedule:Day Name
    WaterUse Latent Fraction Schedule 5p Day,  !- Friday Schedule:Day Name
    WaterUse Latent Fraction Schedule 5p Day,  !- Saturday Schedule:Day Name
    WaterUse Latent Fraction Schedule 5p Day,  !- Holiday Schedule:Day Name
    WaterUse Latent Fraction Schedule 5p Day,  !- SummerDesignDay Schedule:Day Name
    WaterUse Latent Fraction Schedule 5p Day,  !- WinterDesignDay Schedule:Day Name
    WaterUse Latent Fraction Schedule 5p Day,  !- CustomDay1 Schedule:Day Name
    WaterUse Latent Fraction Schedule 5p Day;  !- CustomDay2 Schedule:Day Name

  Schedule:Week:Daily,
    WaterUse Schedule 120F Week Rule - Jan1-Dec31,  !- Name
    WaterUse Schedule 120F Day,  !- Sunday Schedule:Day Name
    WaterUse Schedule 120F Day,  !- Monday Schedule:Day Name
    WaterUse Schedule 120F Day,  !- Tuesday Schedule:Day Name
    WaterUse Schedule 120F Day,  !- Wednesday Schedule:Day Name
    WaterUse Schedule 120F Day,  !- Thursday Schedule:Day Name
    WaterUse Schedule 120F Day,  !- Friday Schedule:Day Name
    WaterUse Schedule 120F Day,  !- Saturday Schedule:Day Name
    WaterUse Schedule 120F Day,  !- Holiday Schedule:Day Name
    WaterUse Schedule 120F Day,  !- SummerDesignDay Schedule:Day Name
    WaterUse Schedule 120F Day,  !- WinterDesignDay Schedule:Day Name
    WaterUse Schedule 120F Day,  !- CustomDay1 Schedule:Day Name
    WaterUse Schedule 120F Day;  !- CustomDay2 Schedule:Day Name

  Schedule:Week:Daily,
    WaterUse Sensible Fraction Schedule 20p Week Rule - Jan1-Dec31,  !- Name
    WaterUse Sensible Fraction Schedule 20p Day,  !- Sunday Schedule:Day Name
    WaterUse Sensible Fraction Schedule 20p Day,  !- Monday Schedule:Day Name
    WaterUse Sensible Fraction Schedule 20p Day,  !- Tuesday Schedule:Day Name
    WaterUse Sensible Fraction Schedule 20p Day,  !- Wednesday Schedule:Day Name
    WaterUse Sensible Fraction Schedule 20p Day,  !- Thursday Schedule:Day Name
    WaterUse Sensible Fraction Schedule 20p Day,  !- Friday Schedule:Day Name
    WaterUse Sensible Fraction Schedule 20p Day,  !- Saturday Schedule:Day Name
    WaterUse Sensible Fraction Schedule 20p Day,  !- Holiday Schedule:Day Name
    WaterUse Sensible Fraction Schedule 20p Day,  !- SummerDesignDay Schedule:Day Name
    WaterUse Sensible Fraction Schedule 20p Day,  !- WinterDesignDay Schedule:Day Name
    WaterUse Sensible Fraction Schedule 20p Day,  !- CustomDay1 Schedule:Day Name
    WaterUse Sensible Fraction Schedule 20p Day;  !- CustomDay2 Schedule:Day Name

  Schedule:Week:Daily,
    Light_week_sch,          !- Name
    Light_day_sch,           !- Sunday Schedule:Day Name
    Light_day_sch,           !- Monday Schedule:Day Name
    Light_day_sch,           !- Tuesday Schedule:Day Name
    Light_day_sch,           !- Wednesday Schedule:Day Name
    Light_day_sch,           !- Thursday Schedule:Day Name
    Light_day_sch,           !- Friday Schedule:Day Name
    Light_day_sch,           !- Saturday Schedule:Day Name
    Light_day_sch,           !- Holiday Schedule:Day Name
    Light_day_sch,           !- SummerDesignDay Schedule:Day Name
    Light_day_sch,           !- WinterDesignDay Schedule:Day Name
    Light_day_sch,           !- CustomDay1 Schedule:Day Name
    Light_day_sch;           !- CustomDay2 Schedule:Day Name

  Schedule:Week:Daily,
    Equip_week_sch,          !- Name
    Equip_day_sch,           !- Sunday Schedule:Day Name
    Equip_day_sch,           !- Monday Schedule:Day Name
    Equip_day_sch,           !- Tuesday Schedule:Day Name
    Equip_day_sch,           !- Wednesday Schedule:Day Name
    Equip_day_sch,           !- Thursday Schedule:Day Name
    Equip_day_sch,           !- Friday Schedule:Day Name
    Equip_day_sch,           !- Saturday Schedule:Day Name
    Equip_day_sch,           !- Holiday Schedule:Day Name
    Equip_day_sch,           !- SummerDesignDay Schedule:Day Name
    Equip_day_sch,           !- WinterDesignDay Schedule:Day Name
    Equip_day_sch,           !- CustomDay1 Schedule:Day Name
    Equip_day_sch;           !- CustomDay2 Schedule:Day Name

  Schedule:Week:Daily,
    Activity_week_sch,       !- Name
    Activity_day_sch,        !- Sunday Schedule:Day Name
    Activity_day_sch,        !- Monday Schedule:Day Name
    Activity_day_sch,        !- Tuesday Schedule:Day Name
    Activity_day_sch,        !- Wednesday Schedule:Day Name
    Activity_day_sch,        !- Thursday Schedule:Day Name
    Activity_day_sch,        !- Friday Schedule:Day Name
    Activity_day_sch,        !- Saturday Schedule:Day Name
    Activity_day_sch,        !- Holiday Schedule:Day Name
    Activity_day_sch,        !- SummerDesignDay Schedule:Day Name
    Activity_day_sch,        !- WinterDesignDay Schedule:Day Name
    Activity_day_sch,        !- CustomDay1 Schedule:Day Name
    Activity_day_sch;        !- CustomDay2 Schedule:Day Name

  Schedule:Week:Daily,
    People_week_sch,         !- Name
    People_day_sch,          !- Sunday Schedule:Day Name
    People_day_sch,          !- Monday Schedule:Day Name
    People_day_sch,          !- Tuesday Schedule:Day Name
    People_day_sch,          !- Wednesday Schedule:Day Name
    People_day_sch,          !- Thursday Schedule:Day Name
    People_day_sch,          !- Friday Schedule:Day Name
    People_day_sch,          !- Saturday Schedule:Day Name
    People_day_sch,          !- Holiday Schedule:Day Name
    People_day_sch,          !- SummerDesignDay Schedule:Day Name
    People_day_sch,          !- WinterDesignDay Schedule:Day Name
    People_day_sch,          !- CustomDay1 Schedule:Day Name
    People_day_sch;          !- CustomDay2 Schedule:Day Name

  Schedule:Week:Daily,
    Heating_setpoint_week,   !- Name
    Heating_Setpoint_day,    !- Sunday Schedule:Day Name
    Heating_Setpoint_day,    !- Monday Schedule:Day Name
    Heating_Setpoint_day,    !- Tuesday Schedule:Day Name
    Heating_Setpoint_day,    !- Wednesday Schedule:Day Name
    Heating_Setpoint_day,    !- Thursday Schedule:Day Name
    Heating_Setpoint_day,    !- Friday Schedule:Day Name
    Heating_Setpoint_day,    !- Saturday Schedule:Day Name
    Heating_Setpoint_day,    !- Holiday Schedule:Day Name
    Heating_Setpoint_day,    !- SummerDesignDay Schedule:Day Name
    Heating_Setpoint_day,    !- WinterDesignDay Schedule:Day Name
    Heating_Setpoint_day,    !- CustomDay1 Schedule:Day Name
    Heating_Setpoint_day;    !- CustomDay2 Schedule:Day Name

!-   ===========  ALL OBJECTS IN CLASS: SCHEDULE:YEAR ===========

  Schedule:Year,
    WaterUse Latent Fraction Schedule 5p,  !- Name
    Fractional,              !- Schedule Type Limits Name
    WaterUse Latent Fraction Schedule 5p Week Rule - Jan1-Dec31,  !- Schedule:Week Name 1
    1,                       !- Start Month 1
    1,                       !- Start Day 1
    12,                      !- End Month 1
    31;                      !- End Day 1

  Schedule:Year,
    WaterUse Schedule 120F,  !- Name
    Temperature,             !- Schedule Type Limits Name
    WaterUse Schedule 120F Week Rule - Jan1-Dec31,  !- Schedule:Week Name 1
    1,                       !- Start Month 1
    1,                       !- Start Day 1
    12,                      !- End Month 1
    31;                      !- End Day 1

  Schedule:Year,
    WaterUse Sensible Fraction Schedule 20p,  !- Name
    Fractional,              !- Schedule Type Limits Name
    WaterUse Sensible Fraction Schedule 20p Week Rule - Jan1-Dec31,  !- Schedule:Week Name 1
    1,                       !- Start Month 1
    1,                       !- Start Day 1
    12,                      !- End Month 1
    31;                      !- End Day 1

  Schedule:Year,
    Light_year_sch,          !- Name
    Fractional,              !- Schedule Type Limits Name
    Light_week_sch,          !- Schedule:Week Name 1
    1,                       !- Start Month 1
    1,                       !- Start Day 1
    12,                      !- End Month 1
    31;                      !- End Day 1

  Schedule:Year,
    Equip_year_sch,          !- Name
    Fractional,              !- Schedule Type Limits Name
    Equip_week_sch,          !- Schedule:Week Name 1
    1,                       !- Start Month 1
    1,                       !- Start Day 1
    12,                      !- End Month 1
    31;                      !- End Day 1

  Schedule:Year,
    Activity_year_sch,       !- Name
    Watt,                    !- Schedule Type Limits Name
    Activity_week_sch,       !- Schedule:Week Name 1
    1,                       !- Start Month 1
    1,                       !- Start Day 1
    12,                      !- End Month 1
    31;                      !- End Day 1

  Schedule:Year,
    People_year_sch,         !- Name
    Fractional,              !- Schedule Type Limits Name
    People_week_sch,         !- Schedule:Week Name 1
    1,                       !- Start Month 1
    1,                       !- Start Day 1
    12,                      !- End Month 1
    31;                      !- End Day 1

  Schedule:Year,
    Heating_setpoint_year,   !- Name
    Temperature,             !- Schedule Type Limits Name
    Heating_setpoint_week,   !- Schedule:Week Name 1
    1,                       !- Start Month 1
    1,                       !- Start Day 1
    12,                      !- End Month 1
    31;                      !- End Day 1

!-   ===========  ALL OBJECTS IN CLASS: SCHEDULE:CONSTANT ===========

  Schedule:Constant,Always On,Fractional,1;

  Schedule:Constant,Always Heating,Temperature,20;

  Schedule:Constant,Always Cooling,Temperature,30;

!-   ===========  ALL OBJECTS IN CLASS: MATERIAL ===========

  Material,
    1/2IN Gypsum,            !- Name
    Smooth,                  !- Roughness
    0.0127,                  !- Thickness {m}
    0.16,                    !- Conductivity {W/m-K}
    784.9,                   !- Density {kg/m3}
    830.000000000001,        !- Specific Heat {J/kg-K}
    0.9,                     !- Thermal Absorptance
    0.4,                     !- Solar Absorptance
    0.4;                     !- Visible Absorptance

  Material,
    1IN Stucco,              !- Name
    Smooth,                  !- Roughness
    0.0253,                  !- Thickness {m}
    0.691799999999999,       !- Conductivity {W/m-K}
    1858,                    !- Density {kg/m3}
    836.999999999999,        !- Specific Heat {J/kg-K}
    0.9,                     !- Thermal Absorptance
    0.92,                    !- Solar Absorptance
    0.92;                    !- Visible Absorptance

  Material,
    8IN Concrete HW,         !- Name
    MediumRough,             !- Roughness
    0.2033,                  !- Thickness {m}
    1.72959999999999,        !- Conductivity {W/m-K}
    2242.99999999999,        !- Density {kg/m3}
    836.999999999999,        !- Specific Heat {J/kg-K}
    0.9,                     !- Thermal Absorptance
    0.65,                    !- Solar Absorptance
    0.65;                    !- Visible Absorptance

  Material,
    F08 Metal surface,       !- Name
    Smooth,                  !- Roughness
    0.0008,                  !- Thickness {m}
    45.2800000000001,        !- Conductivity {W/m-K}
    7823.99999999999,        !- Density {kg/m3}
    500,                     !- Specific Heat {J/kg-K}
    0.9,                     !- Thermal Absorptance
    0.7,                     !- Solar Absorptance
    0.7;                     !- Visible Absorptance

  Material,
    F16 Acoustic tile,       !- Name
    MediumSmooth,            !- Roughness
    0.0191,                  !- Thickness {m}
    0.06,                    !- Conductivity {W/m-K}
    368,                     !- Density {kg/m3}
    590.000000000002,        !- Specific Heat {J/kg-K}
    0.9,                     !- Thermal Absorptance
    0.3,                     !- Solar Absorptance
    0.3;                     !- Visible Absorptance

  Material,
    G01a 19mm gypsum board,  !- Name
    MediumSmooth,            !- Roughness
    0.019,                   !- Thickness {m}
    0.16,                    !- Conductivity {W/m-K}
    800,                     !- Density {kg/m3}
    1090,                    !- Specific Heat {J/kg-K}
    0.9,                     !- Thermal Absorptance
    0.4,                     !- Solar Absorptance
    0.4;                     !- Visible Absorptance

  Material,
    G05 25mm wood,           !- Name
    MediumSmooth,            !- Roughness
    0.0254,                  !- Thickness {m}
    0.15,                    !- Conductivity {W/m-K}
    608,                     !- Density {kg/m3}
    1630,                    !- Specific Heat {J/kg-K}
    0.9,                     !- Thermal Absorptance
    0.5,                     !- Solar Absorptance
    0.5;                     !- Visible Absorptance

  Material,
    I01 25mm insulation board,  !- Name
    MediumRough,             !- Roughness
    0.0254,                  !- Thickness {m}
    0.03,                    !- Conductivity {W/m-K}
    43,                      !- Density {kg/m3}
    1210,                    !- Specific Heat {J/kg-K}
    0.9,                     !- Thermal Absorptance
    0.6,                     !- Solar Absorptance
    0.6;                     !- Visible Absorptance

  Material,
    M11 100mm lightweight concrete,  !- Name
    MediumRough,             !- Roughness
    0.1016,                  !- Thickness {m}
    0.53,                    !- Conductivity {W/m-K}
    1280,                    !- Density {kg/m3}
    840.000000000002,        !- Specific Heat {J/kg-K}
    0.9,                     !- Thermal Absorptance
    0.5,                     !- Solar Absorptance
    0.5;                     !- Visible Absorptance

  Material,
    MAT-CC05 4 HW CONCRETE,  !- Name
    Rough,                   !- Roughness
    0.1016,                  !- Thickness {m}
    1.311,                   !- Conductivity {W/m-K}
    2240,                    !- Density {kg/m3}
    836.800000000001,        !- Specific Heat {J/kg-K}
    0.9,                     !- Thermal Absorptance
    0.85,                    !- Solar Absorptance
    0.85;                    !- Visible Absorptance

  Material,
    Metal Decking,           !- Name
    MediumSmooth,            !- Roughness
    0.0015,                  !- Thickness {m}
    45.006,                  !- Conductivity {W/m-K}
    7680,                    !- Density {kg/m3}
    418.4,                   !- Specific Heat {J/kg-K}
    0.9,                     !- Thermal Absorptance
    0.6,                     !- Solar Absorptance
    0.6;                     !- Visible Absorptance

  Material,
    Metal Roofing,           !- Name
    MediumSmooth,            !- Roughness
    0.0015,                  !- Thickness {m}
    45.006,                  !- Conductivity {W/m-K}
    7680,                    !- Density {kg/m3}
    418.4,                   !- Specific Heat {J/kg-K}
    0.9,                     !- Thermal Absorptance
    0.6,                     !- Solar Absorptance
    0.6;                     !- Visible Absorptance

  Material,
    Roof Insulation [25],    !- Name
    MediumRough,             !- Roughness
    0.263,                   !- Thickness {m}
    0.049,                   !- Conductivity {W/m-K}
    265,                     !- Density {kg/m3}
    836.800000000001,        !- Specific Heat {J/kg-K}
    0.9,                     !- Thermal Absorptance
    0.7,                     !- Solar Absorptance
    0.7;                     !- Visible Absorptance

  Material,
    Wall Insulation [42],    !- Name
    MediumRough,             !- Roughness
    0.0913999999999999,      !- Thickness {m}
    0.0432,                  !- Conductivity {W/m-K}
    91,                      !- Density {kg/m3}
    836.999999999999,        !- Specific Heat {J/kg-K}
    0.9,                     !- Thermal Absorptance
    0.5,                     !- Solar Absorptance
    0.5;                     !- Visible Absorptance

!-   ===========  ALL OBJECTS IN CLASS: MATERIAL:NOMASS ===========

  Material:NoMass,
    CP02 CARPET PAD,         !- Name
    Smooth,                  !- Roughness
    0.1,                     !- Thermal Resistance {m2-K/W}
    0.9,                     !- Thermal Absorptance
    0.8,                     !- Solar Absorptance
    0.8;                     !- Visible Absorptance

!-   ===========  ALL OBJECTS IN CLASS: MATERIAL:AIRGAP ===========

  Material:AirGap,
    F04 Wall air space resistance,  !- Name
    0.15;                    !- Thermal Resistance {m2-K/W}

  Material:AirGap,
    F05 Ceiling air space resistance,  !- Name
    0.18;                    !- Thermal Resistance {m2-K/W}

!-   ===========  ALL OBJECTS IN CLASS: WINDOWMATERIAL:SIMPLEGLAZINGSYSTEM ===========

  WindowMaterial:SimpleGlazingSystem,
    _2_WSV_3_Air,            !- Name
    1.62,                    !- U-Factor {W/m2-K}
    0.64,                    !- Solar Heat Gain Coefficient
    0.8;                     !- Visible Transmittance

!-   ===========  ALL OBJECTS IN CLASS: WINDOWMATERIAL:GLAZING ===========

  WindowMaterial:Glazing,
    Theoretical Glass [216], !- Name
    SpectralAverage,         !- Optical Data Type
    ,                        !- Window Glass Spectral Data Set Name
    0.00299999999999999,     !- Thickness {m}
    0.3801,                  !- Solar Transmittance at Normal Incidence
    0.5699,                  !- Front Side Solar Reflectance at Normal Incidence
    0,                       !- Back Side Solar Reflectance at Normal Incidence
    0.5079,                  !- Visible Transmittance at Normal Incidence
    0.4421,                  !- Front Side Visible Reflectance at Normal Incidence
    0,                       !- Back Side Visible Reflectance at Normal Incidence
    0,                       !- Infrared Transmittance at Normal Incidence
    0.9,                     !- Front Side Infrared Hemispherical Emissivity
    0.9,                     !- Back Side Infrared Hemispherical Emissivity
    0.0133,                  !- Conductivity {W/m-K}
    1,                       !- Dirt Correction Factor for Solar and Visible Transmittance
    No;                      !- Solar Diffusing

!-   ===========  ALL OBJECTS IN CLASS: CONSTRUCTION ===========

  Construction,
    _2_WSV_3_Air,            !- Name
    _2_WSV_3_Air;            !- Outside Layer

  Construction,
    ASHRAE 189.1-2009 ExtRoof Metal ClimateZone 6,  !- Name
    Metal Roofing,           !- Outside Layer
    Roof Insulation [25],    !- Layer 2
    Metal Decking;           !- Layer 3

  Construction,
    ASHRAE 189.1-2009 ExtWall Mass ClimateZone 6,  !- Name
    1IN Stucco,              !- Outside Layer
    8IN Concrete HW,         !- Layer 2
    Wall Insulation [42],    !- Layer 3
    1/2IN Gypsum;            !- Layer 4

  Construction,
    ASHRAE 189.1-2009 ExtWall Mass ClimateZone 7,  !- Name
    1IN Stucco,              !- Outside Layer
    8IN Concrete HW,         !- Layer 2
    Wall Insulation [42],    !- Layer 3