!-Generator IDFEditor 1.50
!-Option SortedOrder
!-NOTE: All comments with '!-' are ignored by the IDFEditor and are generated automatically.
!-      Use '!' comments if they need to be retained when using the IDFEditor.
!-   ===========  ALL OBJECTS IN CLASS: VERSION ===========

  Version,9.2;

!-   ===========  ALL OBJECTS IN CLASS: SIZINGPERIOD:DESIGNDAY ===========

  SizingPeriod:DesignDay,
    Montreal Int'l Ann Clg .4% Condns DB=>MWB,  !- Name
    7,                       !- Month
    21,                      !- Day of Month
    SummerDesignDay,         !- Day Type
    30.0,                    !- Maximum Dry-Bulb Temperature {C}
    9.3,                     !- Daily Dry-Bulb Temperature Range {deltaC}
    DefaultMultipliers,      !- Dry-Bulb Temperature Range Modifier Type
    ,                        !- Dry-Bulb Temperature Range Modifier Day Schedule Name
    Wetbulb,                 !- Humidity Condition Type
    22.1,                    !- Wetbulb or DewPoint at Maximum Dry-Bulb {C}
    ,                        !- Humidity Condition Day Schedule Name
    ,                        !- Humidity Ratio at Maximum Dry-Bulb {kgWater/kgDryAir}
    ,                        !- Enthalpy at Maximum Dry-Bulb {J/kg}
    ,                        !- Daily Wet-Bulb Temperature Range {deltaC}
    100893.0,                !- Barometric Pressure {Pa}
    4.9,                     !- Wind Speed {m/s}
    220.0,                   !- Wind Direction {deg}
    No,                      !- Rain Indicator
    No,                      !- Snow Indicator
    No,                      !- Daylight Saving Time Indicator
    ASHRAETau,               !- Solar Model Indicator
    ,                        !- Beam Solar Day Schedule Name
    ,                        !- Diffuse Solar Day Schedule Name
    0.465,                   !- ASHRAE Clear Sky Optical Depth for Beam Irradiance (taub) {dimensionless}
    1.966;                   !- ASHRAE Clear Sky Optical Depth for Diffuse Irradiance (taud) {dimensionless}

  SizingPeriod:DesignDay,
    Montreal Int'l Ann Htg 99.6% Condns DB,  !- Name
    1,                       !- Month
    21,                      !- Day of Month
    WinterDesignDay,         !- Day Type
    -23.7,                   !- Maximum Dry-Bulb Temperature {C}
    0.0,                     !- Daily Dry-Bulb Temperature Range {deltaC}
    DefaultMultipliers,      !- Dry-Bulb Temperature Range Modifier Type
    ,                        !- Dry-Bulb Temperature Range Modifier Day Schedule Name
    Wetbulb,                 !- Humidity Condition Type
    -23.7,                   !- Wetbulb or DewPoint at Maximum Dry-Bulb {C}
    ,                        !- Humidity Condition Day Schedule Name
    ,                        !- Humidity Ratio at Maximum Dry-Bulb {kgWater/kgDryAir}
    ,                        !- Enthalpy at Maximum Dry-Bulb {J/kg}
    ,                        !- Daily Wet-Bulb Temperature Range {deltaC}
    100893.0,                !- Barometric Pressure {Pa}
    3.9,                     !- Wind Speed {m/s}
    260.0,                   !- Wind Direction {deg}
    No,                      !- Rain Indicator
    No,                      !- Snow Indicator
    No,                      !- Daylight Saving Time Indicator
    ASHRAEClearSky,          !- Solar Model Indicator
    ,                        !- Beam Solar Day Schedule Name
    ,                        !- Diffuse Solar Day Schedule Name
    ,                        !- ASHRAE Clear Sky Optical Depth for Beam Irradiance (taub) {dimensionless}
    ,                        !- ASHRAE Clear Sky Optical Depth for Diffuse Irradiance (taud) {dimensionless}
    0.0;                     !- Sky Clearness

!-   ===========  ALL OBJECTS IN CLASS: RUNPERIOD ===========

  RunPeriod,
    RUNPERIOD 1,             !- Name
    1,                       !- Begin Month
    1,                       !- Begin Day of Month
    ,                        !- Begin Year
    12,                      !- End Month
    31,                      !- End Day of Month
    ,                        !- End Year
    Tuesday,                 !- Day of Week for Start Day
    Yes,                     !- Use Weather File Holidays and Special Days
    Yes,                     !- Use Weather File Daylight Saving Period
    No,                      !- Apply Weekend Holiday Rule
    Yes,                     !- Use Weather File Rain Indicators
    Yes,                     !- Use Weather File Snow Indicators
    ;                        !- Treat Weather as Actual

!-   ===========  ALL OBJECTS IN CLASS: RUNPERIODCONTROL:SPECIALDAYS ===========

  RunPeriodControl:SpecialDays,
    President's Day,         !- Name
    3rd Monday in February,  !- Start Date
    1,                       !- Duration {days}
    Holiday;                 !- Special Day Type

  RunPeriodControl:SpecialDays,
    Thanksgiving,            !- Name
    4th Thursday in November,!- Start Date
    1,                       !- Duration {days}
    Holiday;                 !- Special Day Type

  RunPeriodControl:SpecialDays,
    Halloween,               !- Name
    10/31,                   !- Start Date
    1,                       !- Duration {days}
    Holiday;                 !- Special Day Type

  RunPeriodControl:SpecialDays,
    Vacation,                !- Name
    5/1,                     !- Start Date
    14,                      !- Duration {days}
    CustomDay1;              !- Special Day Type

!-   ===========  ALL OBJECTS IN CLASS: SCHEDULETYPELIMITS ===========
! Not limited

  ScheduleTypeLimits,
    Any Number;              !- Name

  ScheduleTypeLimits,
    Fraction,                !- Name
    0.0,                     !- Lower Limit Value
    1.0,                     !- Upper Limit Value
    CONTINUOUS;              !- Numeric Type

  ScheduleTypeLimits,
    Temperature,             !- Name
    -60,                     !- Lower Limit Value
    200,                     !- Upper Limit Value
    CONTINUOUS;              !- Numeric Type

  ScheduleTypeLimits,
    Control Type,            !- Name
    0,                       !- Lower Limit Value
    4,                       !- Upper Limit Value
    DISCRETE;                !- Numeric Type

  ScheduleTypeLimits,
    On/Off,                  !- Name
    0,                       !- Lower Limit Value
    1,                       !- Upper Limit Value
    DISCRETE;                !- Numeric Type

  ScheduleTypeLimits,
    Percent,                 !- Name
    0,                       !- Lower Limit Value
    ,                        !- Upper Limit Value
    Continuous,              !- Numeric Type
    Percent;                 !- Unit Type

!-   ===========  ALL OBJECTS IN CLASS: SCHEDULE:DAY:HOURLY ===========

  Schedule:Day:Hourly,
    Day On Peak,             !- Name
    Fraction,                !- Schedule Type Limits Name
    0.,                      !- Hour 1
    0.,                      !- Hour 2
    0.,                      !- Hour 3
    0.,                      !- Hour 4
    0.,                      !- Hour 5
    0.,                      !- Hour 6
    0.,                      !- Hour 7
    0.,                      !- Hour 8
    0.,                      !- Hour 9
    1.,                      !- Hour 10
    1.,                      !- Hour 11
    1.,                      !- Hour 12
    1.,                      !- Hour 13
    1.,                      !- Hour 14
    1.,                      !- Hour 15
    1.,                      !- Hour 16
    1.,                      !- Hour 17
    1.,                      !- Hour 18
    0.,                      !- Hour 19
    0.,                      !- Hour 20
    0.,                      !- Hour 21
    0.,                      !- Hour 22
    0.,                      !- Hour 23
    0.;                      !- Hour 24

  Schedule:Day:Hourly,
    Day Off Peak,            !- Name
    Fraction,                !- Schedule Type Limits Name
    0.,                      !- Hour 1
    0.,                      !- Hour 2
    0.,                      !- Hour 3
    0.,                      !- Hour 4
    0.,                      !- Hour 5
    0.,                      !- Hour 6
    0.,                      !- Hour 7
    0.,                      !- Hour 8
    0.,                      !- Hour 9
    0,                       !- Hour 10
    0,                       !- Hour 11
    0,                       !- Hour 12
    0,                       !- Hour 13
    0,                       !- Hour 14
    1,                       !- Hour 15
    1.,                      !- Hour 16
    1.,                      !- Hour 17
    1.,                      !- Hour 18
    0.,                      !- Hour 19
    0.,                      !- Hour 20
    0.,                      !- Hour 21
    0.,                      !- Hour 22
    0.,                      !- Hour 23
    0.;                      !- Hour 24

!-   ===========  ALL OBJECTS IN CLASS: SCHEDULE:DAY:INTERVAL ===========

  Schedule:Day:Interval,
    dd winter rel humidity,  !- Name
    Percent,                 !- Schedule Type Limits Name
    No,                      !- Interpolate to Timestep
    until: 24:00,            !- Time 1
    74;                      !- Value Until Time 1

!-   ===========  ALL OBJECTS IN CLASS: SCHEDULE:DAY:LIST ===========

  Schedule:Day:List,
    Myschedule,              !- Name
    Fraction,                !- Schedule Type Limits Name
    No,                      !- Interpolate to Timestep
    30,                      !- Minutes per Item
    0.0,                     !- Value 1
    0.5,                     !- <none>
    0,                       !- <none>
    0,                       !- <none>
    0,                       !- <none>
    0;                       !- <none>

!-   ===========  ALL OBJECTS IN CLASS: SCHEDULE:WEEK:DAILY ===========

  Schedule:Week:Daily,
    Week on Peak Daily,      !- Name
    Day On Peak,             !- Sunday Schedule:Day Name
    Day On Peak,             !- Monday Schedule:Day Name
    Day On Peak,             !- Tuesday Schedule:Day Name
    Day On Peak,             !- Wednesday Schedule:Day Name
    Day On Peak,             !- Thursday Schedule:Day Name
    Day On Peak,             !- Friday Schedule:Day Name
    Day On Peak,             !- Saturday Schedule:Day Name
    Day On Peak,             !- Holiday Schedule:Day Name
    Day On Peak,             !- SummerDesignDay Schedule:Day Name
    Day On Peak,             !- WinterDesignDay Schedule:Day Name
    Day On Peak,             !- CustomDay1 Schedule:Day Name
    Day On Peak;             !- CustomDay2 Schedule:Day Name

!-   ===========  ALL OBJECTS IN CLASS: SCHEDULE:WEEK:COMPACT ===========

  Schedule:Week:Compact,
    Week on Peak,            !- Name
    WeekDays,                !- DayType List 1
    Day On Peak,             !- Schedule:Day Name 1
    AllOtherDays,            !- DayType List 2
    Day Off Peak;            !- Schedule:Day Name 2

  Schedule:Week:Compact,
    FanAndCoilAllOffWeekSched,  !- Name
    WeekDays,                !- DayType List 1
    Day On Peak,             !- Schedule:Day Name 1
    AllOtherDays,            !- DayType List 2
    Day Off Peak;            !- Schedule:Day Name 2

  Schedule:Week:Compact,
    FanAndCoilSummerWeekSched,  !- Name
    WeekDays,                !- DayType List 1
    Day On Peak,             !- Schedule:Day Name 1
    AllOtherDays,            !- DayType List 2
    Day Off Peak;            !- Schedule:Day Name 2

!-   ===========  ALL OBJECTS IN CLASS: SCHEDULE:YEAR ===========

  Schedule:Year,
    On Peak,                 !- Name
    Fraction,                !- Schedule Type Limits Name
    Week on Peak Daily,      !- Schedule:Week Name 1
    1,                       !- Start Month 1
    1,                       !- Start Day 1
    12,                      !- End Month 1
    31;                      !- End Day 1

  Schedule:Year,
    CoolingCoilAvailSched,   !- Name
    Fraction,                !- Schedule Type Limits Name
    FanAndCoilAllOffWeekSched,  !- Schedule:Week Name 1
    1,                       !- Start Month 1
    1,                       !- Start Day 1
    3,                       !- End Month 1
    31,                      !- End Day 1
    FanAndCoilSummerWeekSched,  !- Schedule:Week Name 2
    4,                       !- Start Month 2
    1,                       !- Start Day 2
    9,                       !- End Month 2
    30,                      !- End Day 2
    FanAndCoilAllOffWeekSched,  !- Schedule:Week Name 3
    10,                      !- Start Month 3
    1,                       !- Start Day 3
    12,                      !- End Month 3
    31;                      !- End Day 3

  Schedule:Year,
    On Peak 2,               !- Name
    Fraction,                !- Schedule Type Limits Name
    Week on Peak Daily,      !- Schedule:Week Name 1
    1,                       !- Start Month 1
    1,                       !- Start Day 1
    12,                      !- End Month 1
    31;                      !- End Day 1

!-   ===========  ALL OBJECTS IN CLASS: SCHEDULE:COMPACT ===========

  Schedule:Compact,
    POFF,                    !- Name
    Fraction,                !- Schedule Type Limits Name
    Through: 4/30,           !- Field 1
    For: AllDays,            !- Field 2
    Until: 24:00,1.0,        !- Field 3
    Through: 12/31,          !- Field 5
    For: Weekdays,           !- Field 6
    Until: 7:00,.1,          !- Field 7
    Until: 17:00,1.0,        !- Field 9
    Until: 24:00,.1,         !- Field 11
    For: Weekends,           !- Field 13
    Until: 24:00,.1,         !- Field 14
    For: AllOtherDays,       !- Field 16
    Until: 24:00,.1;         !- Field 17

! Schedule Continuous

  Schedule:Compact,
    Continuous,              !- Name
    on/off,                  !- Schedule Type Limits Name
    Through: 12/31,          !- Field 1
    For: AllDays,            !- Field 2
    Until: 24:00,1.0;        !- Field 3

! Schedule Daytime Ventilation

  Schedule:Compact,
    Daytime Ventilation,     !- Name
    Fraction,                !- Schedule Type Limits Name
    Through: 12/31,          !- Field 1
    For: Weekdays SummerDesignDay, !- Field 2
    Until: 08:00,0.0,        !- Field 3
    Until: 18:00,1.0,        !- Field 5
    Until: 24:00,0.0,        !- Field 7
    For: Weekends WinterDesignDay, !- Field 9
    Until: 10:00,0.0,        !- Field 10
    Until: 16:00,1.0,        !- Field 12
    Until: 24:00,0.0,        !- Field 14
    For: Holidays AllOtherDays, !- Field 16
    Until: 24:00,0.0;        !- Field 17

!-   ===========  ALL OBJECTS IN CLASS: SCHEDULE:CONSTANT ===========

  Schedule:Constant,AlwaysOn,On/Off,1.0;

!-   ===========  ALL OBJECTS IN CLASS: SCHEDULE:FILE ===========

  Schedule:File,
    elecTDVfromCZ06res,      !- Name
    Any Number,              !- Schedule Type Limits Name
    TDV_2008_kBtu_CTZ06.csv, !- File Name
    2,                       !- Column Number
    4;                       !- Rows to Skip at Top

  Schedule:File,
    elecTDVfromCZ06com,      !- Name
    Any Number,              !- Schedule Type Limits Name
    TDV_2008_kBtu_CTZ06.csv, !- File Name
    1,                       !- Column Number
    4,                       !- Rows to Skip at Top
    ,                        !- Number of Hours of Data
    ,                        !- Column Separator
    ,                        !- Interpolate to Timestep
    60;                      !- Minutes per Item

