!-Generator IDFEditor 1.50
!-Option SortedOrder

!-NOTE: All comments with '!-' are ignored by the IDFEditor and are generated automatically.
!-      Use '!' comments if they need to be retained when using the IDFEditor.


!-   ===========  ALL OBJECTS IN CLASS: VERSION ===========

Version,
    8.9;                     !- Version Identifier


!-   ===========  ALL OBJECTS IN CLASS: SCHEDULETYPELIMITS ===========

! Not limited
ScheduleTypeLimits,
    Any Number;              !- Name

ScheduleTypeLimits,
    Fraction,                !- Name
    0.0,                     !- Lower Limit Value
    1.0,                     !- Upper Limit Value
    CONTINUOUS;              !- Numeric Type

ScheduleTypeLimits,
    Temperature,             !- Name
    -60,                     !- Lower Limit Value
    200,                     !- Upper Limit Value
    CONTINUOUS;              !- Numeric Type

ScheduleTypeLimits,
    Control Type,            !- Name
    0,                       !- Lower Limit Value
    4,                       !- Upper Limit Value
    DISCRETE;                !- Numeric Type

ScheduleTypeLimits,
    On/Off,                  !- Name
    0,                       !- Lower Limit Value
    1,                       !- Upper Limit Value
    DISCRETE;                !- Numeric Type

ScheduleTypeLimits,
    On/Off,                  !- Name
    0,                       !- Lower Limit Value
    1,                       !- Upper Limit Value
    DISCRETE,                !- Numeric Type
    Availability;            !- Unit Type

ScheduleTypeLimits,
    Percent,                 !- Name
    0,                       !- Lower Limit Value
    ,                        !- Upper Limit Value
    Continuous,              !- Numeric Type
    Percent;                 !- Unit Type


!-   ===========  ALL OBJECTS IN CLASS: SCHEDULE:DAY:HOURLY ===========

Schedule:Day:Hourly,
    Day On Peak,             !- Name
    Fraction,                !- Schedule Type Limits Name
    0.,                      !- Hour 1
    0.,                      !- Hour 2
    0.,                      !- Hour 3
    0.,                      !- Hour 4
    0.,                      !- Hour 5
    0.,                      !- Hour 6
    0.,                      !- Hour 7
    0.,                      !- Hour 8
    0.,                      !- Hour 9
    1.,                      !- Hour 10
    1.,                      !- Hour 11
    1.,                      !- Hour 12
    1.,                      !- Hour 13
    1.,                      !- Hour 14
    1.,                      !- Hour 15
    1.,                      !- Hour 16
    1.,                      !- Hour 17
    1.,                      !- Hour 18
    0.,                      !- Hour 19
    0.,                      !- Hour 20
    0.,                      !- Hour 21
    0.,                      !- Hour 22
    0.,                      !- Hour 23
    0.;                      !- Hour 24

Schedule:Day:Hourly,
    Day Off Peak,            !- Name
    Fraction,                !- Schedule Type Limits Name
    0.,                      !- Hour 1
    0.,                      !- Hour 2
    0.,                      !- Hour 3
    0.,                      !- Hour 4
    0.,                      !- Hour 5
    0.,                      !- Hour 6
    0.,                      !- Hour 7
    0.,                      !- Hour 8
    0.,                      !- Hour 9
    0,                       !- Hour 10
    0,                       !- Hour 11
    0,                       !- Hour 12
    0,                       !- Hour 13
    0,                       !- Hour 14
    1,                       !- Hour 15
    1.,                      !- Hour 16
    1.,                      !- Hour 17
    1.,                      !- Hour 18
    0.,                      !- Hour 19
    0.,                      !- Hour 20
    0.,                      !- Hour 21
    0.,                      !- Hour 22
    0.,                      !- Hour 23
    0.;                      !- Hour 24


!-   ===========  ALL OBJECTS IN CLASS: SCHEDULE:DAY:INTERVAL ===========

Schedule:Day:Interval,
    dd winter rel humidity,  !- Name
    Percent,                 !- Schedule Type Limits Name
    No,                      !- Interpolate to Timestep
    until: 24:00,            !- Time 1 {hh:mm}
    74;                      !- Value Until Time 1


!-   ===========  ALL OBJECTS IN CLASS: SCHEDULE:DAY:LIST ===========

! name
! Schedule type
! Interpolate value
! Minutes per item
! from 00:01 to 00:30
! from 00:31 to 01:00
Schedule:Day:List,
    Myschedule,              !- Name
    Fraction,                !- Schedule Type Limits Name
    No,                      !- Interpolate to Timestep
    30,                      !- Minutes per Item
    0.0,                     !- Value 1
    0.5,                     !- N3
    Schedule:Week:Compact,   !- N4
    Week on Peak,            !- N5
    For: AllDays,            !- N6
    Day On Peak;             !- N7


!-   ===========  ALL OBJECTS IN CLASS: SCHEDULE:WEEK:COMPACT ===========

Schedule:Week:Compact,
    Week on Peak,            !- Name
    WeekDays,                !- DayType List 1
    Day On Peak,             !- Schedule:Day Name 1
    AllOtherDays,            !- DayType List 2
    Day Off Peak;            !- Schedule:Day Name 2

Schedule:Week:Compact,
    FanAndCoilAllOffWeekSched,  !- Name
    WeekDays,                !- DayType List 1
    Day On Peak,             !- Schedule:Day Name 1
    AllOtherDays,            !- DayType List 2
    Day Off Peak;            !- Schedule:Day Name 2

Schedule:Week:Compact,
    FanAndCoilSummerWeekSched,  !- Name
    WeekDays,                !- DayType List 1
    Day On Peak,             !- Schedule:Day Name 1
    AllOtherDays,            !- DayType List 2
    Day Off Peak;            !- Schedule:Day Name 2


!-   ===========  ALL OBJECTS IN CLASS: SCHEDULE:YEAR ===========

Schedule:Year,
    On Peak,                 !- Name
    Fraction,                !- Schedule Type Limits Name
    Week On Peak,            !- Schedule:Week Name 1
    1,                       !- Start Month 1
    1,                       !- Start Day 1
    12,                      !- End Month 1
    31;                      !- End Day 1

Schedule:Year,
    CoolingCoilAvailSched,   !- Name
    Fraction,                !- Schedule Type Limits Name
    FanAndCoilAllOffWeekSched,  !- Schedule:Week Name 1
    1,                       !- Start Month 1
    1,                       !- Start Day 1
    3,                       !- End Month 1
    31,                      !- End Day 1
    FanAndCoilSummerWeekSched,  !- Schedule:Week Name 2
    4,                       !- Start Month 2
    1,                       !- Start Day 2
    9,                       !- End Month 2
    30,                      !- End Day 2
    FanAndCoilAllOffWeekSched,  !- Schedule:Week Name 3
    10,                      !- Start Month 3
    1,                       !- Start Day 3
    12,                      !- End Month 3
    31;                      !- End Day 3


!-   ===========  ALL OBJECTS IN CLASS: SCHEDULE:COMPACT ===========

Schedule:Compact,
    POFF,                    !- Name
    Fraction,                !- Schedule Type Limits Name
    Through: 4/30,           !- Field 1
    For: AllDays,            !- Field 2
    Until: 24:00,            !- Field 3
    1.0,                     !- Field 4
    Through: 12/31,          !- Field 5
    For: Weekdays,           !- Field 6
    Until: 7:00,             !- Field 7
    .1,                      !- Field 8
    Until: 17:00,            !- Field 9
    1.0,                     !- Field 10
    Until: 24:00,            !- Field 11
    .1,                      !- Field 12
    For: Weekends Holidays,  !- Field 13
    Until: 24:00,            !- Field 14
    .1,                      !- Field 15
    For: AllOtherDays,       !- Field 16
    Until: 24:00,            !- Field 17
    .1;                      !- Field 18

! Schedule Continuous
Schedule:Compact,
    Continuous,              !- Name
    on/off,                  !- Schedule Type Limits Name
    Through: 12/31,          !- Field 1
    For: AllDays,            !- Field 2
    Until: 24:00,            !- Field 3
    1.0;                     !- Field 4

! Schedule Daytime Ventilation
Schedule:Compact,
    Daytime Ventilation,     !- Name
    Fraction,                !- Schedule Type Limits Name
    Through: 12/31,          !- Field 1
    For: Weekdays SummerDesignDay,  !- Field 2
    Until: 08:00,            !- Field 3
    0.0,                     !- Field 4
    Until: 18:00,            !- Field 5
    1.0,                     !- Field 6
    Until: 24:00,            !- Field 7
    0.0,                     !- Field 8
    For: Weekends WinterDesignDay,  !- Field 9
    Until: 10:00,            !- Field 10
    0.0,                     !- Field 11
    Until: 16:00,            !- Field 12
    1.0,                     !- Field 13
    Until: 24:00,            !- Field 14
    0.0,                     !- Field 15
    For: Holidays AllOtherDays,  !- Field 16
    Until: 24:00,            !- Field 17
    0.0;                     !- Field 18


!-   ===========  ALL OBJECTS IN CLASS: SCHEDULE:CONSTANT ===========

Schedule:Constant,
    AlwaysOn,                !- Name
    On/Off,                  !- Schedule Type Limits Name
    1.0;                     !- Hourly Value


!-   ===========  ALL OBJECTS IN CLASS: SCHEDULE:FILE ===========

Schedule:File,
    elecTDVfromCZ06res,      !- Name
    Any Number,              !- Schedule Type Limits Name
    TDV_2008_kBtu_CTZ06.csv,      !- File Name
    2,                       !- Column Number
    4;                       !- Rows to Skip at Top

Schedule:File,
    elecTDVfromCZ06com,      !- Name
    Any Number,              !- Schedule Type Limits Name
    TDV_2008_kBtu_CTZ06.csv, !- File Name
    1,                       !- Column Number
    4,                       !- Rows to Skip at Top
    ,                        !- Number of Hours of Data
    ,                        !- Column Separator
    ,                        !- Interpolate to Timestep
    60;                      !- Minutes per Item

