!-Generator IDFEditor 1.50
!-Option SortedOrder
!-NOTE: All comments with '!-' are ignored by the IDFEditor and are generated automatically.
!-      Use '!' comments if they need to be retained when using the IDFEditor.
!-   ===========  ALL OBJECTS IN CLASS: VERSION ===========

  Version,9.2;

!-   ===========  ALL OBJECTS IN CLASS: SIMULATIONCONTROL ===========

  SimulationControl,
    No,                      !- Do Zone Sizing Calculation
    No,                      !- Do System Sizing Calculation
    No,                      !- Do Plant Sizing Calculation
    No,                      !- Run Simulation for Sizing Periods
    Yes;                     !- Run Simulation for Weather File Run Periods

!-   ===========  ALL OBJECTS IN CLASS: BUILDING ===========

  Building,
    Untitled,                !- Name
    0.0,                     !- North Axis {deg}
    City,                    !- Terrain
    0.04,                    !- Loads Convergence Tolerance Value
    0.4,                     !- Temperature Convergence Tolerance Value {deltaC}
    FullInteriorAndExterior, !- Solar Distribution
    25,                      !- Maximum Number of Warmup Days
    ;                        !- Minimum Number of Warmup Days

!-   ===========  ALL OBJECTS IN CLASS: TIMESTEP ===========

  Timestep,4;

!-   ===========  ALL OBJECTS IN CLASS: SIZINGPERIOD:DESIGNDAY ===========

  SizingPeriod:DesignDay,
    Montreal Int'l Ann Clg .4% Condns DB=>MWB,  !- Name
    7,                       !- Month
    21,                      !- Day of Month
    SummerDesignDay,         !- Day Type
    30.0,                    !- Maximum Dry-Bulb Temperature {C}
    9.3,                     !- Daily Dry-Bulb Temperature Range {deltaC}
    DefaultMultipliers,      !- Dry-Bulb Temperature Range Modifier Type
    ,                        !- Dry-Bulb Temperature Range Modifier Day Schedule Name
    Wetbulb,                 !- Humidity Condition Type
    22.1,                    !- Wetbulb or DewPoint at Maximum Dry-Bulb {C}
    ,                        !- Humidity Condition Day Schedule Name
    ,                        !- Humidity Ratio at Maximum Dry-Bulb {kgWater/kgDryAir}
    ,                        !- Enthalpy at Maximum Dry-Bulb {J/kg}
    ,                        !- Daily Wet-Bulb Temperature Range {deltaC}
    100893.0,                !- Barometric Pressure {Pa}
    4.9,                     !- Wind Speed {m/s}
    220.0,                   !- Wind Direction {deg}
    No,                      !- Rain Indicator
    No,                      !- Snow Indicator
    No,                      !- Daylight Saving Time Indicator
    ASHRAETau,               !- Solar Model Indicator
    ,                        !- Beam Solar Day Schedule Name
    ,                        !- Diffuse Solar Day Schedule Name
    0.465,                   !- ASHRAE Clear Sky Optical Depth for Beam Irradiance (taub) {dimensionless}
    1.966;                   !- ASHRAE Clear Sky Optical Depth for Diffuse Irradiance (taud) {dimensionless}

  SizingPeriod:DesignDay,
    Montreal Int'l Ann Htg 99.6% Condns DB,  !- Name
    1,                       !- Month
    21,                      !- Day of Month
    WinterDesignDay,         !- Day Type
    -23.7,                   !- Maximum Dry-Bulb Temperature {C}
    0.0,                     !- Daily Dry-Bulb Temperature Range {deltaC}
    DefaultMultipliers,      !- Dry-Bulb Temperature Range Modifier Type
    ,                        !- Dry-Bulb Temperature Range Modifier Day Schedule Name
    Wetbulb,                 !- Humidity Condition Type
    -23.7,                   !- Wetbulb or DewPoint at Maximum Dry-Bulb {C}
    ,                        !- Humidity Condition Day Schedule Name
    ,                        !- Humidity Ratio at Maximum Dry-Bulb {kgWater/kgDryAir}
    ,                        !- Enthalpy at Maximum Dry-Bulb {J/kg}
    ,                        !- Daily Wet-Bulb Temperature Range {deltaC}
    100893.0,                !- Barometric Pressure {Pa}
    3.9,                     !- Wind Speed {m/s}
    260.0,                   !- Wind Direction {deg}
    No,                      !- Rain Indicator
    No,                      !- Snow Indicator
    No,                      !- Daylight Saving Time Indicator
    ASHRAEClearSky,          !- Solar Model Indicator
    ,                        !- Beam Solar Day Schedule Name
    ,                        !- Diffuse Solar Day Schedule Name
    ,                        !- ASHRAE Clear Sky Optical Depth for Beam Irradiance (taub) {dimensionless}
    ,                        !- ASHRAE Clear Sky Optical Depth for Diffuse Irradiance (taud) {dimensionless}
    0.0;                     !- Sky Clearness

!-   ===========  ALL OBJECTS IN CLASS: RUNPERIOD ===========

  RunPeriod,
    RUNPERIOD 1,             !- Name
    1,                       !- Begin Month
    1,                       !- Begin Day of Month
    ,                        !- Begin Year
    12,                      !- End Month
    31,                      !- End Day of Month
    ,                        !- End Year
    Monday,                  !- Day of Week for Start Day
    No,                      !- Use Weather File Holidays and Special Days
    No,                      !- Use Weather File Daylight Saving Period
    No,                      !- Apply Weekend Holiday Rule
    Yes,                     !- Use Weather File Rain Indicators
    Yes,                     !- Use Weather File Snow Indicators
    ;                        !- Treat Weather as Actual

!-   ===========  ALL OBJECTS IN CLASS: RUNPERIODCONTROL:SPECIALDAYS ===========

  RunPeriodControl:SpecialDays,
    President's Day,         !- Name
    3rd Monday in February,  !- Start Date
    1,                       !- Duration {days}
    Holiday;                 !- Special Day Type

  RunPeriodControl:SpecialDays,
    Thanksgiving,            !- Name
    4th Thursday in November,!- Start Date
    1,                       !- Duration {days}
    Holiday;                 !- Special Day Type

  RunPeriodControl:SpecialDays,
    Halloween,               !- Name
    10/31,                   !- Start Date
    1,                       !- Duration {days}
    Holiday;                 !- Special Day Type

  RunPeriodControl:SpecialDays,
    Vacation,                !- Name
    5/1,                     !- Start Date
    14,                      !- Duration {days}
    CustomDay1;              !- Special Day Type

!-   ===========  ALL OBJECTS IN CLASS: SCHEDULETYPELIMITS ===========

  ScheduleTypeLimits,
    Any Number;              !- Name

  ScheduleTypeLimits,
    Fraction,                !- Name
    0.0,                     !- Lower Limit Value
    1.0,                     !- Upper Limit Value
    CONTINUOUS;              !- Numeric Type

  ScheduleTypeLimits,
    Temperature,             !- Name
    -60,                     !- Lower Limit Value
    200,                     !- Upper Limit Value
    CONTINUOUS;              !- Numeric Type

  ScheduleTypeLimits,
    On/Off,                  !- Name
    0,                       !- Lower Limit Value
    1,                       !- Upper Limit Value
    DISCRETE;                !- Numeric Type

  ScheduleTypeLimits,
    Control Type,            !- Name
    0,                       !- Lower Limit Value
    4,                       !- Upper Limit Value
    DISCRETE;                !- Numeric Type

  ScheduleTypeLimits,
    Humidity,                !- Name
    10,                      !- Lower Limit Value
    90,                      !- Upper Limit Value
    CONTINUOUS;              !- Numeric Type

  ScheduleTypeLimits,
    Number;                  !- Name

  ScheduleTypeLimits,
    Percent,                 !- Name
    0,                       !- Lower Limit Value
    ,                        !- Upper Limit Value
    Continuous,              !- Numeric Type
    Percent;                 !- Unit Type

!-   ===========  ALL OBJECTS IN CLASS: SCHEDULE:DAY:HOURLY ===========

  Schedule:Day:Hourly,
    Day On Peak,             !- Name
    Fraction,                !- Schedule Type Limits Name
    0.,                      !- Hour 1
    0.,                      !- Hour 2
    0.,                      !- Hour 3
    0.,                      !- Hour 4
    0.,                      !- Hour 5
    0.,                      !- Hour 6
    0.,                      !- Hour 7
    0.,                      !- Hour 8
    0.,                      !- Hour 9
    1.,                      !- Hour 10
    1.,                      !- Hour 11
    1.,                      !- Hour 12
    1.,                      !- Hour 13
    1.,                      !- Hour 14
    1.,                      !- Hour 15
    1.,                      !- Hour 16
    1.,                      !- Hour 17
    1.,                      !- Hour 18
    0.,                      !- Hour 19
    0.,                      !- Hour 20
    0.,                      !- Hour 21
    0.,                      !- Hour 22
    0.,                      !- Hour 23
    0.;                      !- Hour 24

  Schedule:Day:Hourly,
    Day Off Peak,            !- Name
    Fraction,                !- Schedule Type Limits Name
    0.,                      !- Hour 1
    0.,                      !- Hour 2
    0.,                      !- Hour 3
    0.,                      !- Hour 4
    0.,                      !- Hour 5
    0.,                      !- Hour 6
    0.,                      !- Hour 7
    0.,                      !- Hour 8
    0.,                      !- Hour 9
    0,                       !- Hour 10
    0,                       !- Hour 11
    0,                       !- Hour 12
    0,                       !- Hour 13
    0,                       !- Hour 14
    1,                       !- Hour 15
    1.,                      !- Hour 16
    1.,                      !- Hour 17
    1.,                      !- Hour 18
    0.,                      !- Hour 19
    0.,                      !- Hour 20
    0.,                      !- Hour 21
    0.,                      !- Hour 22
    0.,                      !- Hour 23
    0.;                      !- Hour 24

!-   ===========  ALL OBJECTS IN CLASS: SCHEDULE:DAY:INTERVAL ===========

  Schedule:Day:Interval,
    dd winter rel humidity,  !- Name
    Percent,                 !- Schedule Type Limits Name
    No,                      !- Interpolate to Timestep
    until: 24:00,            !- Time 1
    74;                      !- Value Until Time 1

!-   ===========  ALL OBJECTS IN CLASS: SCHEDULE:DAY:LIST ===========

  Schedule:Day:List,
    Myschedule,              !- Name
    Fraction,                !- Schedule Type Limits Name
    No,                      !- Interpolate to Timestep
    30,                      !- Minutes per Item
    0.0,                     !- Value 1
    0.25,                    !- <none>
    0.3,                     !- <none>
    0.7,                     !- <none>
    1.0,                     !- <none>
    1.0,                     !- <none>
    0.0,                     !- <none>
    0.25,                    !- <none>
    0.3,                     !- <none>
    0.7,                     !- <none>
    1.0,                     !- <none>
    1.0,                     !- <none>
    0.0,                     !- <none>
    0.25,                    !- <none>
    0.3,                     !- <none>
    0.7,                     !- <none>
    1.0,                     !- <none>
    1.0,                     !- <none>
    0.0,                     !- <none>
    0.25,                    !- <none>
    0.3,                     !- <none>
    0.7,                     !- <none>
    1.0,                     !- <none>
    1.0,                     !- <none>
    0.0,                     !- <none>
    0.25,                    !- <none>
    0.3,                     !- <none>
    0.7,                     !- <none>
    1.0,                     !- <none>
    1.0,                     !- <none>
    0.0,                     !- <none>
    0.25,                    !- <none>
    0.3,                     !- <none>
    0.7,                     !- <none>
    1.0,                     !- <none>
    1.0,                     !- <none>
    0.0,                     !- <none>
    0.25,                    !- <none>
    0.3,                     !- <none>
    0.7,                     !- <none>
    1.0,                     !- <none>
    1.0,                     !- <none>
    0.0,                     !- <none>
    0.25,                    !- <none>
    0.3,                     !- <none>
    0.7,                     !- <none>
    1.0,                     !- <none>
    1.0;                     !- <none>

!-   ===========  ALL OBJECTS IN CLASS: SCHEDULE:WEEK:DAILY ===========

  Schedule:Week:Daily,
    Week on Peak Daily,      !- Name
    Day On Peak,             !- Sunday Schedule:Day Name
    Day On Peak,             !- Monday Schedule:Day Name
    Day On Peak,             !- Tuesday Schedule:Day Name
    Day On Peak,             !- Wednesday Schedule:Day Name
    Day On Peak,             !- Thursday Schedule:Day Name
    Day On Peak,             !- Friday Schedule:Day Name
    Day On Peak,             !- Saturday Schedule:Day Name
    Day On Peak,             !- Holiday Schedule:Day Name
    Day On Peak,             !- SummerDesignDay Schedule:Day Name
    Day On Peak,             !- WinterDesignDay Schedule:Day Name
    Day On Peak,             !- CustomDay1 Schedule:Day Name
    Day On Peak;             !- CustomDay2 Schedule:Day Name

!-   ===========  ALL OBJECTS IN CLASS: SCHEDULE:WEEK:COMPACT ===========

  Schedule:Week:Compact,
    Week on Peak,            !- Name
    WeekDays,                !- DayType List 1
    Day On Peak,             !- Schedule:Day Name 1
    AllOtherDays,            !- DayType List 2
    Day Off Peak;            !- Schedule:Day Name 2

  Schedule:Week:Compact,
    FanAndCoilAllOffWeekSched,  !- Name
    WeekDays,                !- DayType List 1
    Day On Peak,             !- Schedule:Day Name 1
    AllOtherDays,            !- DayType List 2
    Day Off Peak;            !- Schedule:Day Name 2

  Schedule:Week:Compact,
    FanAndCoilSummerWeekSched,  !- Name
    WeekDays,                !- DayType List 1
    Day On Peak,             !- Schedule:Day Name 1
    AllOtherDays,            !- DayType List 2
    Day Off Peak;            !- Schedule:Day Name 2

!-   ===========  ALL OBJECTS IN CLASS: SCHEDULE:YEAR ===========

  Schedule:Year,
    On Peak,                 !- Name
    Fraction,                !- Schedule Type Limits Name
    Week on Peak Daily,      !- Schedule:Week Name 1
    1,                       !- Start Month 1
    1,                       !- Start Day 1
    12,                      !- End Month 1
    31;                      !- End Day 1

  Schedule:Year,
    CoolingCoilAvailSched,   !- Name
    Fraction,                !- Schedule Type Limits Name
    FanAndCoilAllOffWeekSched,  !- Schedule:Week Name 1
    1,                       !- Start Month 1
    1,                       !- Start Day 1
    3,                       !- End Month 1
    31,                      !- End Day 1
    FanAndCoilSummerWeekSched,  !- Schedule:Week Name 2
    4,                       !- Start Month 2
    1,                       !- Start Day 2
    9,                       !- End Month 2
    30,                      !- End Day 2
    FanAndCoilAllOffWeekSched,  !- Schedule:Week Name 3
    10,                      !- Start Month 3
    1,                       !- Start Day 3
    12,                      !- End Month 3
    31;                      !- End Day 3

  Schedule:Year,
    On Peak 2,               !- Name
    Fraction,                !- Schedule Type Limits Name
    Week on Peak Daily,      !- Schedule:Week Name 1
    1,                       !- Start Month 1
    1,                       !- Start Day 1
    12,                      !- End Month 1
    31;                      !- End Day 1

!-   ===========  ALL OBJECTS IN CLASS: SCHEDULE:COMPACT ===========

  Schedule:Compact,
    POFF,                    !- Name
    Fraction,                !- Schedule Type Limits Name
    Through: 4/30,           !- Field 1
    For: AllDays,            !- Field 2
    Until: 24:00,1.0,        !- Field 3
    Through: 12/31,          !- Field 5
    For: Weekdays,           !- Field 6
    Until: 7:00,.1,          !- Field 7
    Until: 17:00,1.0,        !- Field 9
    Until: 24:00,.1,         !- Field 11
    For: Weekends Holidays,  !- Field 13
    Until: 24:00,.1,         !- Field 14
    For: AllOtherDays,       !- Field 16
    Until: 24:00,.1;         !- Field 17

! Schedule Continuous

  Schedule:Compact,
    Continuous,              !- Name
    on/off,                  !- Schedule Type Limits Name
    Through: 12/31,          !- Field 1
    For: AllDays,            !- Field 2
    Until: 24:00,1.0;        !- Field 3

! Schedule Daytime Ventilation

  Schedule:Compact,
    Daytime Ventilation,     !- Name
    Fraction,                !- Schedule Type Limits Name
    Through: 12/31,          !- Field 1
    For: Weekdays SummerDesignDay, !- Field 2
    Until: 08:00,0.0,        !- Field 3
    Until: 18:00,1.0,        !- Field 5
    Until: 24:00,0.0,        !- Field 7
    For: Weekends WinterDesignDay, !- Field 9
    Until: 10:00,0.0,        !- Field 10
    Until: 16:00,1.0,        !- Field 12
    Until: 24:00,0.0,        !- Field 14
    For: AllOtherDays,       !- Field 16
    Until: 24:00,0.0;        !- Field 17

  Schedule:Compact,
    Office Lights Schedule,  !- Name
    Fraction,                !- Schedule Type Limits Name
    Through: 12/31,          !- Field 1
    For: Weekdays,           !- Field 2
    Until: 05:00,0.05,       !- Field 3
    Until: 07:00,0.1,        !- Field 5
    Until: 08:00,0.3,        !- Field 7
    Until: 17:00,0.9,        !- Field 9
    Until: 18:00,0.5,        !- Field 11
    Until: 20:00,0.3,        !- Field 13
    Until: 22:00,0.2,        !- Field 15
    Until: 23:00,0.1,        !- Field 17
    Until: 24:00,0.05,       !- Field 19
    For: SummerDesignDay,    !- Field 21
    Until: 24:00,1.0,        !- Field 22
    For: Saturday,           !- Field 24
    Until: 06:00,0.05,       !- Field 25
    Until: 08:00,0.1,        !- Field 27
    Until: 12:00,0.3,        !- Field 29
    Until: 17:00,0.15,       !- Field 31
    Until: 24:00,0.05,       !- Field 33
    For: WinterDesignDay,    !- Field 35
    Until: 24:00,0.0,        !- Field 36
    For: AllOtherDays,       !- Field 38
    Until: 24:00,0.05;       !- Field 39

  Schedule:Compact,
    Office Equipment Schedule,  !- Name
    Fraction,                !- Schedule Type Limits Name
    Through: 12/31,          !- Field 1
    For: Weekdays,           !- Field 2
    Until: 08:00,0.40,       !- Field 3
    Until: 12:00,0.90,       !- Field 5
    Until: 13:00,0.80,       !- Field 7
    Until: 17:00,0.90,       !- Field 9
    Until: 18:00,0.50,       !- Field 11
    Until: 24:00,0.40,       !- Field 13
    For: SummerDesignDay,    !- Field 15
    Until: 24:00,1.0,        !- Field 16
    For: Saturday,           !- Field 18
    Until: 06:00,0.30,       !- Field 19
    Until: 08:00,0.4,        !- Field 21
    Until: 12:00,0.5,        !- Field 23
    Until: 17:00,0.35,       !- Field 25
    Until: 24:00,0.30,       !- Field 27
    For: WinterDesignDay,    !- Field 29
    Until: 24:00,0.0,        !- Field 30
    For: Sunday AllOtherDays,!- Field 32
    Until: 24:00,0.30;       !- Field 33

  Schedule:Compact,
    Office Occupancy Schedule,  !- Name
    Fraction,                !- Schedule Type Limits Name
    Through: 12/31,          !- Field 1
    For: Weekdays,           !- Field 2
    Until: 06:00,0.0,        !- Field 3
    Until: 07:00,0.1,        !- Field 5
    Until: 08:00,0.2,        !- Field 7
    Until: 12:00,0.95,       !- Field 9
    Until: 13:00,0.5,        !- Field 11
    Until: 17:00,0.95,       !- Field 13
    Until: 18:00,0.3,        !- Field 15
    Until: 20:00,0.1,        !- Field 17
    Until: 24:00,0.05,       !- Field 19
    For: SummerDesignDay,    !- Field 21
    Until: 06:00,0.0,        !- Field 22
    Until: 22:00,1.0,        !- Field 24
    Until: 24:00,0.05,       !- Field 26
    For: Saturday,           !- Field 28
    Until: 06:00,0.0,        !- Field 29
    Until: 08:00,0.1,        !- Field 31
    Until: 12:00,0.3,        !- Field 33
    Until: 17:00,0.1,        !- Field 35
    Until: 19:00,0.0,        !- Field 37
    Until: 24:00,0.0,        !- Field 39
    For: WinterDesignDay,    !- Field 41
    Until: 24:00,0.0,        !- Field 42
    For: Sunday AllOtherDays,!- Field 44
    Until: 06:00,0.0,        !- Field 45
    Until: 18:00,0.0,        !- Field 47
    Until: 24:00,0.0;        !- Field 49

  Schedule:Compact,
    Infiltration Schedule,   !- Name
    Fraction,                !- Schedule Type Limits Name
    Through: 12/31,          !- Field 1
    For: Weekdays SummerDesignDay, !- Field 2
    Until: 06:00,1.0,        !- Field 3
    Until: 22:00,0.0,        !- Field 5
    Until: 24:00,1.0,        !- Field 7
    For: Saturday WinterDesignDay, !- Field 9
    Until: 06:00,1.0,        !- Field 10
    Until: 18:00,0.0,        !- Field 12
    Until: 24:00,1.0,        !- Field 14
    For: Sunday AllOtherDays,!- Field 16
    Until: 24:00,1.0;        !- Field 17

  Schedule:Compact,
    Infiltration Half On Schedule,  !- Name
    Fraction,                !- Schedule Type Limits Name
    Through: 12/31,          !- Field 1
    For: Weekdays SummerDesignDay, !- Field 2
    Until: 06:00,1.0,        !- Field 3
    Until: 22:00,0.5,        !- Field 5
    Until: 24:00,1.0,        !- Field 7
    For: Saturday WinterDesignDay, !- Field 9
    Until: 06:00,1.0,        !- Field 10
    Until: 18:00,0.5,        !- Field 12
    Until: 24:00,1.0,        !- Field 14
    For: Sunday AllOtherDays,!- Field 16
    Until: 24:00,1.0;        !- Field 17

  Schedule:Compact,
    Infiltration Quarter On Schedule,  !- Name
    Fraction,                !- Schedule Type Limits Name
    Through: 12/31,          !- Field 1
    For: Weekdays SummerDesignDay, !- Field 2
    Until: 06:00,1.0,        !- Field 3
    Until: 22:00,0.25,       !- Field 5
    Until: 24:00,1.0,        !- Field 7
    For: Saturday WinterDesignDay, !- Field 9
    Until: 06:00,1.0,        !- Field 10
    Until: 18:00,0.25,       !- Field 12
    Until: 24:00,1.0,        !- Field 14
    For: Sunday AllOtherDays,!- Field 16
    Until: 24:00,1.0;        !- Field 17

  Schedule:Compact,
    Hours of Operation Schedule,  !- Name
    On/Off,                  !- Schedule Type Limits Name
    Through: 12/31,          !- Field 1
    For: Weekdays SummerDesignDay, !- Field 2
    Until: 06:00,0.0,        !- Field 3
    Until: 22:00,1.0,        !- Field 5
    Until: 24:00,0.0,        !- Field 7
    For: Saturday WinterDesignDay, !- Field 9
    Until: 06:00,0.0,        !- Field 10
    Until: 18:00,1.0,        !- Field 12
    Until: 24:00,0.0,        !- Field 14
    For: Sunday AllOtherDays,!- Field 16
    Until: 24:00,0.0;        !- Field 17

  Schedule:Compact,
    Always On,               !- Name
    Fraction,                !- Schedule Type Limits Name
    Through: 12/31,          !- Field 1
    For: AllDays,            !- Field 2
    Until: 24:00,1.0;        !- Field 3

  Schedule:Compact,
    Always Off,              !- Name
    Fraction,                !- Schedule Type Limits Name
    Through: 12/31,          !- Field 1
    For: AllDays,            !- Field 2
    Until: 24:00,0.0;        !- Field 3

  Schedule:Compact,
    Heating Setpoint Schedule,  !- Name
    Temperature,             !- Schedule Type Limits Name
    Through: 12/31,          !- Field 1
    For: Weekdays,           !- Field 2
    Until: 05:00,15.6,       !- Field 3
    Until: 19:00,21.0,       !- Field 5
    Until: 24:00,15.6,       !- Field 7
    For: SummerDesignDay,    !- Field 9
    Until: 24:00,15.6,       !- Field 10
    For: Saturday,           !- Field 12
    Until: 06:00,15.6,       !- Field 13
    Until: 17:00,21.0,       !- Field 15
    Until: 24:00,15.6,       !- Field 17
    For: WinterDesignDay,    !- Field 19
    Until: 24:00,21.0,       !- Field 20
    For: Sunday AllOtherDays,!- Field 22
    Until: 24:00,15.6;       !- Field 23

  Schedule:Compact,
    Cooling Setpoint Schedule,  !- Name
    Temperature,             !- Schedule Type Limits Name
    Through: 12/31,          !- Field 1
    For: Weekdays SummerDesignDay, !- Field 2
    Until: 06:00,30.0,       !- Field 3
    Until: 22:00,24.0,       !- Field 5
    Until: 24:00,30.0,       !- Field 7
    For: Saturday,           !- Field 9
    Until: 06:00,30.0,       !- Field 10
    Until: 18:00,24.0,       !- Field 12
    Until: 24:00,30.0,       !- Field 14
    For WinterDesignDay,     !- Field 16
    Until: 24:00,30.0,       !- Field 17
    For: Sunday AllOtherDays,!- Field 19
    Until: 24:00,30.0;       !- Field 20

  Schedule:Compact,
    Office Activity Schedule,!- Name
    Any Number,              !- Schedule Type Limits Name
    Through: 12/31,          !- Field 1
    For: AllDays,            !- Field 2
    Until: 24:00,120.;       !- Field 3

  Schedule:Compact,
    Office Work Eff. Schedule,  !- Name
    Fraction,                !- Schedule Type Limits Name
    Through: 12/31,          !- Field 1
    For: AllDays,            !- Field 2
    Until: 24:00,0.0;        !- Field 3

  Schedule:Compact,
    Office Clothing Schedule,!- Name
    Any Number,              !- Schedule Type Limits Name
    Through: 04/30,          !- Field 1
    For: AllDays,            !- Field 2
    Until: 24:00,1.0,        !- Field 3
    Through: 09/30,          !- Field 5
    For: AllDays,            !- Field 6
    Until: 24:00,0.5,        !- Field 7
    Through: 12/31,          !- Field 9
    For: AllDays,            !- Field 10
    Until: 24:00,1.0;        !- Field 11

!-   ===========  ALL OBJECTS IN CLASS: SCHEDULE:CONSTANT ===========

  Schedule:Constant,AlwaysOn,On/Off,1.0;

!-   ===========  ALL OBJECTS IN CLASS: SCHEDULE:FILE ===========

  Schedule:File,
    elecTDVfromCZ06res,      !- Name
    Any Number,              !- Schedule Type Limits Name
    TDV_2008_kBtu_CTZ06.csv, !- File Name
    2,                       !- Column Number
    4;                       !- Rows to Skip at Top

  Schedule:File,
    elecTDVfromCZ06com,      !- Name
    Any Number,              !- Schedule Type Limits Name
    TDV_2008_kBtu_CTZ06.csv, !- File Name
    1,                       !- Column Number
    4,                       !- Rows to Skip at Top
    ,                        !- Number of Hours of Data
    ,                        !- Column Separator
    ,                        !- Interpolate to Timestep
    60;                      !- Minutes per Item

!-   ===========  ALL OBJECTS IN CLASS: MATERIAL ===========

  Material,
    F08 Metal surface,       !- Name
    Smooth,                  !- Roughness
    0.0008,                  !- Thickness {m}
    45.28,                   !- Conductivity {W/m-K}
    7824,                    !- Density {kg/m3}
    500;                     !- Specific Heat {J/kg-K}

  Material,
    I01 25mm insulation board,  !- Name
    MediumRough,             !- Roughness
    0.0254,                  !- Thickness {m}
    0.03,                    !- Conductivity {W/m-K}
    43,                      !- Density {kg/m3}
    1210;                    !- Specific Heat {J/kg-K}

  Material,
    I02 50mm insulation board,  !- Name
    MediumRough,             !- Roughness
    0.0508,                  !- Thickness {m}
    0.03,                    !- Conductivity {W/m-K}
    43,                      !- Density {kg/m3}
    1210;                    !- Specific Heat {J/kg-K}

  Material,
    G01a 19mm gypsum board,  !- Name
    MediumSmooth,            !- Roughness
    0.019,                   !- Thickness {m}
    0.16,                    !- Conductivity {W/m-K}
    800,                     !- Density {kg/m3}
    1090;                    !- Specific Heat {J/kg-K}

  Material,
    M11 100mm lightweight concrete,  !- Name
    MediumRough,             !- Roughness
    0.1016,                  !- Thickness {m}
    0.53,                    !- Conductivity {W/m-K}
    1280,                    !- Density {kg/m3}
    840;                     !- Specific Heat {J/kg-K}

  Material,
    F16 Acoustic tile,       !- Name
    MediumSmooth,            !- Roughness
    0.0191,                  !- Thickness {m}
    0.06,                    !- Conductivity {W/m-K}
    368,                     !- Density {kg/m3}
    590;                     !- Specific Heat {J/kg-K}

  Material,
    M01 100mm brick,         !- Name
    MediumRough,             !- Roughness
    0.1016,                  !- Thickness {m}
    0.89,                    !- Conductivity {W/m-K}
    1920,                    !- Density {kg/m3}
    790;                     !- Specific Heat {J/kg-K}

  Material,
    M15 200mm heavyweight concrete,  !- Name
    MediumRough,             !- Roughness
    0.2032,                  !- Thickness {m}
    1.95,                    !- Conductivity {W/m-K}
    2240,                    !- Density {kg/m3}
    900;                     !- Specific Heat {J/kg-K}

  Material,
    M05 200mm concrete block,!- Name
    MediumRough,             !- Roughness
    0.2032,                  !- Thickness {m}
    1.11,                    !- Conductivity {W/m-K}
    800,                     !- Density {kg/m3}
    920;                     !- Specific Heat {J/kg-K}

  Material,
    G05 25mm wood,           !- Name
    MediumSmooth,            !- Roughness
    0.0254,                  !- Thickness {m}
    0.15,                    !- Conductivity {W/m-K}
    608,                     !- Density {kg/m3}
    1630;                    !- Specific Heat {J/kg-K}

!-   ===========  ALL OBJECTS IN CLASS: MATERIAL:AIRGAP ===========

  Material:AirGap,
    F04 Wall air space resistance,  !- Name
    0.15;                    !- Thermal Resistance {m2-K/W}

  Material:AirGap,