! ----  This file was generated with Archsim v.4.0.2.17

Version,8.4;
ProgramControl,
4; !- Number of Threads Allowed

RunPeriod,
  ArchSim,                 !- Name
  1,                       !- Begin Month
  1,                       !- Begin Day of Month
  12,                      !- End Month
  31,                      !- End Day of Month
  UseWeatherFile,          !- Day of Week for Start Day
  No,                      !- Use Weather File Holidays and Special Days
  No,                      !- Use Weather File Daylight Saving Period
  Yes,                     !- Apply Weekend Holiday Rule
  Yes,                     !- Use Weather File Rain Indicators
  Yes,                     !- Use Weather File Snow Indicators
  1;                       !- Number of Times Runperiod to be Repeated

RunPeriodControl:DaylightSavingTime,
  Last Sunday in March,    !- Start Date
  Last Sunday in October;  !- End Date

Site:GroundTemperature:BuildingSurface,14,14,14,14,14,14,14,14,14,14,14,14;

Site:GroundReflectance,0.2,0.2,0.2,0.2,0.2,0.2,0.2,0.2,0.2,0.2,0.2,0.2;

Site:GroundReflectance:SnowModifier,
  1.0,                     !- Ground Reflected Solar Modifier
  1.0;                     !- Daylighting Ground Reflected Solar Modifier

SimulationControl,
  No,                      !- Do Zone Sizing Calculation
  No,                      !- Do System Sizing Calculation
  No,                      !- Do Plant Sizing Calculation
  No,                      !- Run Simulation for Sizing Periods
  Yes;                     !- Run Simulation for Weather File Run Periods



ConvergenceLimits,
  1,                       !- Minimum System Timestep {minutes}
  50;                      !- Maximum HVAC Iterations

ScheduleTypeLimits,
  Any Number;              !- Name

ScheduleTypeLimits,
  Fraction,                !- Name
  0.0,                     !- Lower Limit Value
  1.0,                     !- Upper Limit Value
  CONTINUOUS;              !- Numeric GasType

ScheduleTypeLimits,
  Temperature,             !- Name
  -60,                     !- Lower Limit Value
  200,                     !- Upper Limit Value
  CONTINUOUS;              !- Numeric GasType

ScheduleTypeLimits,
  Control GasType,            !- Name
  0,                       !- Lower Limit Value
  4,                       !- Upper Limit Value
  DISCRETE;                !- Numeric GasType

ScheduleTypeLimits,
  On/Off,                  !- Name
  0,                       !- Lower Limit Value
  1,                       !- Upper Limit Value
  DISCRETE;                !- Numeric GasType

Schedule:Constant,
  On,                      !- Name
  On/Off,                  !- Schedule GasType Limits Name
  1;                       !- Value

Schedule:Constant,
  Off,                     !- Name
  On/Off,                  !- Schedule GasType Limits Name
  0;                       !- Value


GlobalGeometryRules,
  LowerLeftCorner,         !- Starting Vertex Position
  CounterClockWise,        !- Vertex Entry Direction
  Relative;                !- Coordinate System

! -------------------------ERL SENSORS--------------------------

EnergyManagementSystem:Sensor,                                             
  OutdoorTemp, !- Name                                         
  Environment, !- Output:Variable Index Key Name               
  Site Outdoor Air Drybulb Temperature; !- Output:Variable Name
EnergyManagementSystem:Sensor,                                             
  OutdoorRelHumid, !- Name                                         
  Environment, !- Output:Variable Index Key Name               
  Site Outdoor Air Relative Humidity; !- Output:Variable Name


Output:EnergyManagementSystem,
  Verbose,                 !- Actuator Availability Dictionary Reporting
  Verbose,                 !- Internal Variable Availability Dictionary Reporting
  Verbose;                 !- EMS Runtime Language Debug Output Level



ShadowCalculation,
  AverageOverDaysInFrequency,  !- Calculation Method
  20,                      !- Calculation Frequency
  15000,                   !- Maximum Figures in Shadow Overlap Calculations
  SutherlandHodgman,       !- Polygon Clipping Algorithm
  SimpleSkyDiffuseModeling;!- Sky Diffuse Modeling Algorithm

Building,
  Building,                !- Name
  0,                       !- North Axis [deg]
  Suburbs,                 !- Terrain
  .04,                     !- Loads Convergence Tolerance Value
  .4,                      !- Temperature Convergence Tolerance Value {deltaC}
  FullExterior,            !- Solar Distribution   should be  FullInteriorAndExterior
  25,                      !- Maximum Number of Warmup Days
  ;                        !- Minimum Number of Warmup Days

HeatBalanceAlgorithm,
    ConductionTransferFunction,  !- Algorithm
    200,                     !- Surface Temperature Upper Limit {C}
    0.1,                     !- Minimum Surface Convection Heat Transfer Coefficient Value {W/m2-K}
    1000;                    !- Maximum Surface Convection Heat Transfer Coefficient Value {W/m2-K}

Timestep,4;

SurfaceConvectionAlgorithm:Inside,TARP;

SurfaceConvectionAlgorithm:Outside,DOE-2;

! ------------ CONSTRUCTIONS 

! B_Off_Thm_0 GasType: Facade
Construction, B_Off_Thm_0,
B_Gypsum_Plaster_0.02_B_Off_Thm_0,
B_Softwood_General_0.02_B_Off_Thm_0,
B_Gypsum_Plaster_0.02_B_Off_Thm_0;

Construction, B_Off_Thm_0_FLIPPED,
B_Gypsum_Plaster_0.02_B_Off_Thm_0,
B_Softwood_General_0.02_B_Off_Thm_0,
B_Gypsum_Plaster_0.02_B_Off_Thm_0;



! Materials
!- Material: B_Gypsum_Plaster GasType: No Category
Material, B_Gypsum_Plaster_0.02_B_Off_Thm_0 ,                !- Material name 
 Rough,                                         !- Roughness
 0.02,                                         !- Thickness {m}
 0.42,                                          !- Conductivity {w/m-K}
 900,                                          !- Density {kg/m3}
 840,                                          !- Specific Heat {J/kg-K}
 0.9,                                           !- Thermal Emittance
 0.7,                                           !- Solar Absorptance
 0.7;                                           !- Visible Absorptance

!- Material: B_Softwood_General GasType: No Category
Material, B_Softwood_General_0.02_B_Off_Thm_0 ,                !- Material name 
 Rough,                                         !- Roughness
 0.02,                                         !- Thickness {m}
 0.13,                                          !- Conductivity {w/m-K}
 496,                                          !- Density {kg/m3}
 1630,                                          !- Specific Heat {J/kg-K}
 0.9,                                           !- Thermal Emittance
 0.6,                                           !- Solar Absorptance
 0.6;                                           !- Visible Absorptance



! B_Off_Fac_0 GasType: Facade
Construction, B_Off_Fac_0,
B_Clay_Brick_H_0.06_B_Off_Fac_0,
B_XPS_Board_0.02_B_Off_Fac_0,
B_Concrete_Block_H_0.15_B_Off_Fac_0,
B_Fiberglass_Batts_0.05_B_Off_Fac_0,
B_Gypsum_Board_0.015_B_Off_Fac_0;

Construction, B_Off_Fac_0_FLIPPED,
B_Gypsum_Board_0.015_B_Off_Fac_0,
B_Fiberglass_Batts_0.05_B_Off_Fac_0,
B_Concrete_Block_H_0.15_B_Off_Fac_0,
B_XPS_Board_0.02_B_Off_Fac_0,
B_Clay_Brick_H_0.06_B_Off_Fac_0;



! Materials
!- Material: B_Clay_Brick_H GasType: No Category
Material, B_Clay_Brick_H_0.06_B_Off_Fac_0 ,                !- Material name 
 Rough,                                         !- Roughness
 0.06,                                         !- Thickness {m}
 0.41,                                          !- Conductivity {w/m-K}
 1000,                                          !- Density {kg/m3}
 920,                                          !- Specific Heat {J/kg-K}
 0.9,                                           !- Thermal Emittance
 0.5,                                           !- Solar Absorptance
 0.5;                                           !- Visible Absorptance

!- Material: B_XPS_Board GasType: No Category
Material, B_XPS_Board_0.02_B_Off_Fac_0 ,                !- Material name 
 Rough,                                         !- Roughness
 0.02,                                         !- Thickness {m}
 0.037,                                          !- Conductivity {w/m-K}
 40,                                          !- Density {kg/m3}
 1200,                                          !- Specific Heat {J/kg-K}
 0.6,                                           !- Thermal Emittance
 0.6,                                           !- Solar Absorptance
 0.6;                                           !- Visible Absorptance

!- Material: B_Concrete_Block_H GasType: No Category
Material, B_Concrete_Block_H_0.15_B_Off_Fac_0 ,                !- Material name 
 Rough,                                         !- Roughness
 0.15,                                         !- Thickness {m}
 1.25,                                          !- Conductivity {w/m-K}
 880,                                          !- Density {kg/m3}
 840,                                          !- Specific Heat {J/kg-K}
 0.9,                                           !- Thermal Emittance
 0.7,                                           !- Solar Absorptance
 0.7;                                           !- Visible Absorptance

!- Material: B_Fiberglass_Batts GasType: No Category
Material, B_Fiberglass_Batts_0.05_B_Off_Fac_0 ,                !- Material name 
 Rough,                                         !- Roughness
 0.05,                                         !- Thickness {m}
 0.043,                                          !- Conductivity {w/m-K}
 12,                                          !- Density {kg/m3}
 840,                                          !- Specific Heat {J/kg-K}
 0.9,                                           !- Thermal Emittance
 0.6,                                           !- Solar Absorptance
 0.6;                                           !- Visible Absorptance

!- Material: B_Gypsum_Board GasType: No Category
Material, B_Gypsum_Board_0.015_B_Off_Fac_0 ,                !- Material name 
 Rough,                                         !- Roughness
 0.015,                                         !- Thickness {m}
 0.16,                                          !- Conductivity {w/m-K}
 950,                                          !- Density {kg/m3}
 840,                                          !- Specific Heat {J/kg-K}
 0.9,                                           !- Thermal Emittance
 0.6,                                           !- Solar Absorptance
 0.6;                                           !- Visible Absorptance



! B_Off_Par_0 GasType: Partition
Construction, B_Off_Par_0,
B_Gypsum_Plaster_0.02_B_Off_Par_0,
B_Softwood_General_0.02_B_Off_Par_0,
B_Gypsum_Plaster_0.02_B_Off_Par_0;

Construction, B_Off_Par_0_FLIPPED,
B_Gypsum_Plaster_0.02_B_Off_Par_0,
B_Softwood_General_0.02_B_Off_Par_0,
B_Gypsum_Plaster_0.02_B_Off_Par_0;



! Materials
!- Material: B_Gypsum_Plaster GasType: No Category
Material, B_Gypsum_Plaster_0.02_B_Off_Par_0 ,                !- Material name 
 Rough,                                         !- Roughness
 0.02,                                         !- Thickness {m}
 0.42,                                          !- Conductivity {w/m-K}
 900,                                          !- Density {kg/m3}
 840,                                          !- Specific Heat {J/kg-K}
 0.9,                                           !- Thermal Emittance
 0.7,                                           !- Solar Absorptance
 0.7;                                           !- Visible Absorptance

!- Material: B_Softwood_General GasType: No Category
Material, B_Softwood_General_0.02_B_Off_Par_0 ,                !- Material name 
 Rough,                                         !- Roughness
 0.02,                                         !- Thickness {m}
 0.13,                                          !- Conductivity {w/m-K}
 496,                                          !- Density {kg/m3}
 1630,                                          !- Specific Heat {J/kg-K}
 0.9,                                           !- Thermal Emittance
 0.6,                                           !- Solar Absorptance
 0.6;                                           !- Visible Absorptance



! B_Off_Inf_0 GasType: InteriorFloor
Construction, B_Off_Inf_0,
B_Urethane_Carpet_0.02_B_Off_Inf_0,
B_Cement_Mortar_0.02_B_Off_Inf_0,
B_Concrete_RC_Dense_0.15_B_Off_Inf_0,
B_Air_Floor_15cm_0.15_B_Off_Inf_0,
B_Gypsum_Board_0.02_B_Off_Inf_0;

Construction, B_Off_Inf_0_FLIPPED,
B_Gypsum_Board_0.02_B_Off_Inf_0,
B_Air_Floor_15cm_0.15_B_Off_Inf_0,
B_Concrete_RC_Dense_0.15_B_Off_Inf_0,
B_Cement_Mortar_0.02_B_Off_Inf_0,
B_Urethane_Carpet_0.02_B_Off_Inf_0;



! Materials
!- Material: B_Urethane_Carpet GasType: No Category
Material, B_Urethane_Carpet_0.02_B_Off_Inf_0 ,                !- Material name 
 Rough,                                         !- Roughness
 0.02,                                         !- Thickness {m}
 0.045,                                          !- Conductivity {w/m-K}
 110,                                          !- Density {kg/m3}
 840,                                          !- Specific Heat {J/kg-K}
 0.9,                                           !- Thermal Emittance
 0.7,                                           !- Solar Absorptance
 0.7;                                           !- Visible Absorptance

!- Material: B_Cement_Mortar GasType: No Category
Material, B_Cement_Mortar_0.02_B_Off_Inf_0 ,                !- Material name 
 Rough,                                         !- Roughness
 0.02,                                         !- Thickness {m}
 0.8,                                          !- Conductivity {w/m-K}
 1900,                                          !- Density {kg/m3}
 840,                                          !- Specific Heat {J/kg-K}
 0.9,                                           !- Thermal Emittance
 0.8,                                           !- Solar Absorptance
 0.8;                                           !- Visible Absorptance

!- Material: B_Concrete_RC_Dense GasType: No Category
Material, B_Concrete_RC_Dense_0.15_B_Off_Inf_0 ,                !- Material name 
 Rough,                                         !- Roughness
 0.15,                                         !- Thickness {m}
 1.75,                                          !- Conductivity {w/m-K}
 2400,                                          !- Density {kg/m3}
 840,                                          !- Specific Heat {J/kg-K}
 0.9,                                           !- Thermal Emittance
 0.7,                                           !- Solar Absorptance
 0.7;                                           !- Visible Absorptance

!- Material: B_Air_Floor_15cm GasType: No Category
Material, B_Air_Floor_15cm_0.15_B_Off_Inf_0 ,                !- Material name 
 Rough,                                         !- Roughness
 0.15,                                         !- Thickness {m}
 0.7,                                          !- Conductivity {w/m-K}
 1.2,                                          !- Density {kg/m3}
 1000,                                          !- Specific Heat {J/kg-K}
 0.01,                                           !- Thermal Emittance
 0.7,                                           !- Solar Absorptance
 0.7;                                           !- Visible Absorptance

!- Material: B_Gypsum_Board GasType: No Category
Material, B_Gypsum_Board_0.02_B_Off_Inf_0 ,                !- Material name 
 Rough,                                         !- Roughness
 0.02,                                         !- Thickness {m}
 0.16,                                          !- Conductivity {w/m-K}
 950,                                          !- Density {kg/m3}
 840,                                          !- Specific Heat {J/kg-K}
 0.9,                                           !- Thermal Emittance
 0.6,                                           !- Solar Absorptance
 0.6;                                           !- Visible Absorptance



! B_Off_Gro_0 GasType: GroundFloor
Construction, B_Off_Gro_0,
B_XPS_Board_0.02_B_Off_Gro_0,
B_Concrete_RC_Dense_0.15_B_Off_Gro_0,
B_Concrete_MC_Light_0.04_B_Off_Gro_0,
B_Cement_Mortar_0.03_B_Off_Gro_0,
B_Ceramic_Tile_0.02_B_Off_Gro_0;

Construction, B_Off_Gro_0_FLIPPED,
B_Ceramic_Tile_0.02_B_Off_Gro_0,
B_Cement_Mortar_0.03_B_Off_Gro_0,
B_Concrete_MC_Light_0.04_B_Off_Gro_0,
B_Concrete_RC_Dense_0.15_B_Off_Gro_0,
B_XPS_Board_0.02_B_Off_Gro_0;



! Materials
!- Material: B_XPS_Board GasType: No Category
Material, B_XPS_Board_0.02_B_Off_Gro_0 ,                !- Material name 
 Rough,                                         !- Roughness
 0.02,                                         !- Thickness {m}
 0.037,                                          !- Conductivity {w/m-K}
 40,                                          !- Density {kg/m3}
 1200,                                          !- Specific Heat {J/kg-K}
 0.6,                                           !- Thermal Emittance
 0.6,                                           !- Solar Absorptance
 0.6;                                           !- Visible Absorptance

!- Material: B_Concrete_RC_Dense GasType: No Category
Material, B_Concrete_RC_Dense_0.15_B_Off_Gro_0 ,                !- Material name 
 Rough,                                         !- Roughness
 0.15,                                         !- Thickness {m}
 1.75,                                          !- Conductivity {w/m-K}
 2400,                                          !- Density {kg/m3}
 840,                                          !- Specific Heat {J/kg-K}
 0.9,                                           !- Thermal Emittance
 0.7,                                           !- Solar Absorptance
 0.7;                                           !- Visible Absorptance

!- Material: B_Concrete_MC_Light GasType: No Category
Material, B_Concrete_MC_Light_0.04_B_Off_Gro_0 ,                !- Material name 
 Rough,                                         !- Roughness
 0.04,                                         !- Thickness {m}
 1.65,                                          !- Conductivity {w/m-K}
 2100,                                          !- Density {kg/m3}
 1040,                                          !- Specific Heat {J/kg-K}
 0.9,                                           !- Thermal Emittance
 0.7,                                           !- Solar Absorptance
 0.7;                                           !- Visible Absorptance

!- Material: B_Cement_Mortar GasType: No Category
Material, B_Cement_Mortar_0.03_B_Off_Gro_0 ,                !- Material name 
 Rough,                                         !- Roughness
 0.03,                                         !- Thickness {m}
 0.8,                                          !- Conductivity {w/m-K}
 1900,                                          !- Density {kg/m3}
 840,                                          !- Specific Heat {J/kg-K}
 0.9,                                           !- Thermal Emittance
 0.8,                                           !- Solar Absorptance
 0.8;                                           !- Visible Absorptance

!- Material: B_Ceramic_Tile GasType: No Category
Material, B_Ceramic_Tile_0.02_B_Off_Gro_0 ,                !- Material name 
 Rough,                                         !- Roughness
 0.02,                                         !- Thickness {m}
 0.8,                                          !- Conductivity {w/m-K}
 2243,                                          !- Density {kg/m3}
 840,                                          !- Specific Heat {J/kg-K}
 0.9,                                           !- Thermal Emittance
 0.4,                                           !- Solar Absorptance
 0.4;                                           !- Visible Absorptance



! B_Off_Rof_0 GasType: Roof
Construction, B_Off_Rof_0,
B_XPS_Board_0.1_B_Off_Rof_0,
B_Concrete_MC_Light_0.15_B_Off_Rof_0,
B_Concrete_RC_Dense_0.2_B_Off_Rof_0,
B_Air_Floor_15cm_0.15_B_Off_Rof_0,
B_Gypsum_Board_0.02_B_Off_Rof_0;

Construction, B_Off_Rof_0_FLIPPED,
B_Gypsum_Board_0.02_B_Off_Rof_0,
B_Air_Floor_15cm_0.15_B_Off_Rof_0,
B_Concrete_RC_Dense_0.2_B_Off_Rof_0,
B_Concrete_MC_Light_0.15_B_Off_Rof_0,
B_XPS_Board_0.1_B_Off_Rof_0;



! Materials
!- Material: B_XPS_Board GasType: No Category
Material, B_XPS_Board_0.1_B_Off_Rof_0 ,                !- Material name 
 Rough,                                         !- Roughness
 0.1,                                         !- Thickness {m}
 0.037,                                          !- Conductivity {w/m-K}
 40,                                          !- Density {kg/m3}
 1200,                                          !- Specific Heat {J/kg-K}
 0.6,                                           !- Thermal Emittance
 0.6,                                           !- Solar Absorptance
 0.6;                                           !- Visible Absorptance

!- Material: B_Concrete_MC_Light GasType: No Category
Material, B_Concrete_MC_Light_0.15_B_Off_Rof_0 ,                !- Material name 
 Rough,                                         !- Roughness
 0.15,                                         !- Thickness {m}
 1.65,                                          !- Conductivity {w/m-K}
 2100,                                          !- Density {kg/m3}
 1040,                                          !- Specific Heat {J/kg-K}
 0.9,                                           !- Thermal Emittance
 0.7,                                           !- Solar Absorptance
 0.7;                                           !- Visible Absorptance

!- Material: B_Concrete_RC_Dense GasType: No Category
Material, B_Concrete_RC_Dense_0.2_B_Off_Rof_0 ,                !- Material name 
 Rough,                                         !- Roughness
 0.2,                                         !- Thickness {m}
 1.75,                                          !- Conductivity {w/m-K}
 2400,                                          !- Density {kg/m3}
 840,                                          !- Specific Heat {J/kg-K}
 0.9,                                           !- Thermal Emittance
 0.7,                                           !- Solar Absorptance
 0.7;                                           !- Visible Absorptance

!- Material: B_Air_Floor_15cm GasType: No Category
Material, B_Air_Floor_15cm_0.15_B_Off_Rof_0 ,                !- Material name 
 Rough,                                         !- Roughness
 0.15,                                         !- Thickness {m}
 0.7,                                          !- Conductivity {w/m-K}
 1.2,                                          !- Density {kg/m3}
 1000,                                          !- Specific Heat {J/kg-K}
 0.01,                                           !- Thermal Emittance
 0.7,                                           !- Solar Absorptance
 0.7;                                           !- Visible Absorptance

!- Material: B_Gypsum_Board GasType: No Category
Material, B_Gypsum_Board_0.02_B_Off_Rof_0 ,                !- Material name 
 Rough,                                         !- Roughness
 0.02,                                         !- Thickness {m}
 0.16,                                          !- Conductivity {w/m-K}
 950,                                          !- Density {kg/m3}
 840,                                          !- Specific Heat {J/kg-K}
 0.9,                                           !- Thermal Emittance
 0.6,                                           !- Solar Absorptance
 0.6;                                           !- Visible Absorptance




! ------------ GLAZING  

! B_Dbl_Air_Cl GasType: Double
Construction, B_Dbl_Air_Cl,
B_Glass_Clear_3_0.003_B_Dbl_Air_Cl,
AIR_0.006_B_Dbl_Air_Cl,
B_Glass_Clear_3_0.003_B_Dbl_Air_Cl;

Construction, B_Dbl_Air_Cl_FLIPPED,
B_Glass_Clear_3_0.003_B_Dbl_Air_Cl,
AIR_0.006_B_Dbl_Air_Cl,
B_Glass_Clear_3_0.003_B_Dbl_Air_Cl;



! Materials
WindowMaterial:Glazing,B_Glass_Clear_3_0.003_B_Dbl_Air_Cl,                         !- Generic CLEAR 3MM
 SpectralAverage,                               !- Optical data type {SpectralAverage or Spectral}
 SpectralAverage,                                              !- Name of spectral data set when Optical Data GasType = Spectral
 0.003,                                          !- Thickness {m}
 0.83,                                          !- Solar transmittance at normal incidence
 0.07,                                          !- Solar reflectance at normal incidence: front side
 0.07,                                          !- Solar reflectance at normal incidence: back side
 0.89,                                          !- Visible transmittance at normal incidence
 0.08,                                          !- Visible reflectance at normal incidence: front side
 0.08,                                          !- Visible reflectance at normal incidence: back side
 0,                                            !- IR transmittance at normal incidence
 0.84,                                           !- IR emissivity: front side
 0.84,                                           !- IR emissivity: back side
 0.9,                                            !- Conductivity {W/m-K}
 1;                                             !- Dirt Correction Factor for Solar and Visible Transmittance

! Gas: AIR GasType: AIR
WindowMaterial:Gas,AIR_0.006_B_Dbl_Air_Cl ,                !- Material name 
 AIR,                                           !- Gas type (Air - Argon - Krypton - Xenon - SF6 - Custom)
 0.006;                                         !- Thickness {m}





! ------------ SCHEDULES  

Schedule:Year,B_Off_Y_Occ,Fraction,B_Off_W_Occ,1,1,12,31;

Schedule:Year,B_Off_Y_Het,Fraction,B_Off_W_Het,1,1,4,30,
B_Off_W_Off,5,1,9,30,
B_Off_W_Het,10,1,12,31;

Schedule:Year,B_Off_Y_Col,Fraction,B_Off_W_Off,1,1,3,31,
B_Off_W_Col,4,1,9,30,
B_Off_W_Off,10,1,12,31;

Schedule:Year,B_Off_Y_Dhw,Fraction,B_Off_W_Dhw,1,1,12,31;

Schedule:Year,B_Off_Y_Lgt,Fraction,B_Off_W_Lgt,1,1,12,31;

Schedule:Year,B_Off_Y_Plg,Fraction,B_Off_W_Plg,1,1,12,31;

Schedule:Year,B_Off_Y_Nat,Fraction,B_Off_W_Off,1,1,3,31,
B_Off_W_Nat,4,1,10,31,
B_Off_W_Off,11,1,12,31;

Schedule:Week:Daily, B_Off_W_Occ,
  B_Off_D_Occ_WE,
  B_Off_D_Occ_WD,
  B_Off_D_Occ_WD,
  B_Off_D_Occ_WD,
  B_Off_D_Occ_WD,
  B_Off_D_Occ_WD,
  B_Off_D_Occ_WE,
  B_Off_D_Occ_WE,
  B_Off_D_Occ_WD,
  B_Off_D_Occ_WD,
  B_Off_D_Occ_WD,
  B_Off_D_Occ_WD;

Schedule:Week:Daily, B_Off_W_Het,
  B_Off_D_Het_WE,
  B_Off_D_Het_WD,
  B_Off_D_Het_WD,
  B_Off_D_Het_WD,
  B_Off_D_Het_WD,
  B_Off_D_Het_WD,
  B_Off_D_Het_WE,
  B_Off_D_Het_WE,
  B_Off_D_Het_WD,
  B_Off_D_Het_WD,
  B_Off_D_Het_WD,
  B_Off_D_Het_WD;

Schedule:Week:Daily, B_Off_W_Off,
  B_Off_D_Off,
  B_Off_D_Off,
  B_Off_D_Off,
  B_Off_D_Off,
  B_Off_D_Off,
  B_Off_D_Off,
  B_Off_D_Off,
  B_Off_D_Off,
  B_Off_D_Off,
  B_Off_D_Off,
  B_Off_D_Off,
  B_Off_D_Off;

Schedule:Week:Daily, B_Off_W_Col,
  B_Off_D_Col_WE,
  B_Off_D_Col_WD,
  B_Off_D_Col_WD,
  B_Off_D_Col_WD,
  B_Off_D_Col_WD,
  B_Off_D_Col_WD,
  B_Off_D_Col_WE,
  B_Off_D_Col_WE,
  B_Off_D_Col_WD,
  B_Off_D_Col_WD,
  B_Off_D_Col_WD,
  B_Off_D_Col_WD;

Schedule:Week:Daily, B_Off_W_Dhw,
  B_Off_D_Dhw_WE,
  B_Off_D_Dhw_WD,
  B_Off_D_Dhw_WD,
  B_Off_D_Dhw_WD,
  B_Off_D_Dhw_WD,
  B_Off_D_Dhw_WD,
  B_Off_D_Dhw_WE,
  B_Off_D_Dhw_WE,
  B_Off_D_Dhw_WD,
  B_Off_D_Dhw_WD,
  B_Off_D_Dhw_WD,
  B_Off_D_Dhw_WD;

Schedule:Week:Daily, B_Off_W_Lgt,
  B_Off_D_Lgt_WE,
  B_Off_D_Lgt_WD,
  B_Off_D_Lgt_WD,
  B_Off_D_Lgt_WD,
  B_Off_D_Lgt_WD,
  B_Off_D_Lgt_WD,
  B_Off_D_Lgt_WE,
  B_Off_D_Lgt_WE,
  B_Off_D_Lgt_WD,
  B_Off_D_Lgt_WD,
  B_Off_D_Lgt_WD,
  B_Off_D_Lgt_WD;

Schedule:Week:Daily, B_Off_W_Plg,
  B_Off_D_Plg_WE,
  B_Off_D_Plg_WD,
  B_Off_D_Plg_WD,
  B_Off_D_Plg_WD,
  B_Off_D_Plg_WD,
  B_Off_D_Plg_WD,
  B_Off_D_Plg_WE,
  B_Off_D_Plg_WE,
  B_Off_D_Plg_WD,
  B_Off_D_Plg_WD,
  B_Off_D_Plg_WD,
  B_Off_D_Plg_WD;

Schedule:Week:Daily, B_Off_W_Nat,
  B_Off_D_Nat_WE,
  B_Off_D_Nat_WD,
  B_Off_D_Nat_WD,
  B_Off_D_Nat_WD,
  B_Off_D_Nat_WD,
  B_Off_D_Nat_WD,
  B_Off_D_Nat_WE,
  B_Off_D_Nat_WE,
  B_Off_D_Nat_WD,
  B_Off_D_Nat_WD,
  B_Off_D_Nat_WD,
  B_Off_D_Nat_WD;

Schedule:Day:Hourly, B_Off_D_Occ_WD, Fraction,0,0,0,0,0,0,0.1,0.2,1,1,1,1,0.5,1,1,1,1,0.3,0.2,0.1,0,0,0,0;

Schedule:Day:Hourly, B_Off_D_Occ_WE, Fraction,0,0,0,0,0,0,0.1,0.1,0.1,0.1,0.1,0.1,0.1,0.1,0.1,0.1,0.1,0.1,0.1,0.1,0,0,0,0;

Schedule:Day:Hourly, B_Off_D_Het_WD, Fraction,0,0,0,0,0,0,1,1,1,1,1,1,1,1,1,1,1,1,1,1,0,0,0,0;

Schedule:Day:Hourly, B_Off_D_Het_WE, Fraction,0,0,0,0,0,0,0,0,0,0,0,0,0,0,0,0,0,0,0,0,0,0,0,0;

Schedule:Day:Hourly, B_Off_D_Off, Fraction,0,0,0,0,0,0,0,0,0,0,0,0,0,0,0,0,0,0,0,0,0,0,0,0;

Schedule:Day:Hourly, B_Off_D_Col_WD, Fraction,0,0,0,0,0,0,1,1,1,1,1,1,1,1,1,1,1,1,1,1,0,0,0,0;

Schedule:Day:Hourly, B_Off_D_Col_WE, Fraction,0,0,0,0,0,0,0,0,0,0,0,0,0,0,0,0,0,0,0,0,0,0,0,0;

Schedule:Day:Hourly, B_Off_D_Dhw_WD, Fraction,0,0,0,0,0,0,0.2,0.4,0.4,0.4,0.4,0.6,0.6,0.4,0.4,0.4,0.4,0.4,0.4,0.2,0,0,0,0;

Schedule:Day:Hourly, B_Off_D_Dhw_WE, Fraction,0,0,0,0,0,0,0.1,0.1,0.1,0.1,0.1,0.1,0.1,0.1,0.1,0.1,0.1,0.1,0.1,0.1,0,0,0,0;

Schedule:Day:Hourly, B_Off_D_Lgt_WD, Fraction,0.1,0.1,0.1,0.1,0.1,0.1,0.1,0.3,1,1,1,1,0.8,1,1,1,1,0.5,0.3,0.3,0.2,0.2,0.1,0.1;

Schedule:Day:Hourly, B_Off_D_Lgt_WE, Fraction,0.1,0.1,0.1,0.1,0.1,0.1,0.1,0.1,0.1,0.1,0.1,0.1,0.1,0.1,0.1,0.1,0.1,0.1,0.1,0.1,0.1,0.1,0.1,0.1;

Schedule:Day:Hourly, B_Off_D_Plg_WD, Fraction,0.1,0.1,0.1,0.1,0.1,0.1,0.1,0.3,1,1,1,1,0.8,1,1,1,1,1,0.3,0.3,0.2,0.2,0.1,0.1;

Schedule:Day:Hourly, B_Off_D_Plg_WE, Fraction,0.1,0.1,0.1,0.1,0.1,0.1,0.1,0.1,0.1,0.1,0.1,0.1,0.1,0.1,0.1,0.1,0.1,0.1,0.1,0.1,0.1,0.1,0.1,0.1;
